14
-28.20992000
C      -1.893700      0.008500     -0.362400     -0.441215
C      -0.605600      0.326900      0.391000     -0.250729
C       0.605600     -0.326900     -0.283200     -0.250748
C       1.893700     -0.008500      0.470200     -0.441210
H      -1.836300      0.391200     -1.403700      0.142201
H      -2.752300      0.494100      0.147500      0.140376
H      -2.067300     -1.088500     -0.383500      0.142163
H      -0.468800      1.430100      0.419300      0.133616
H      -0.698800     -0.043400      1.435300      0.133597
H       0.468800     -1.430100     -0.311500      0.133605
H       0.698800      0.043400     -1.327500      0.133600
H       1.836300     -0.391200      1.511600      0.142199
H       2.067300      1.088500      0.491300      0.142173
H       2.752300     -0.494100     -0.039700      0.140372
CCCC
