17
-31.84279000
C      -1.903700      0.615300     -0.008000     -0.436918
C      -1.084000     -0.238900     -0.974400     -0.247018
C      -0.005300     -1.078900     -0.267800     -0.269208
C       1.081600     -0.258100      0.448700     -0.247020
C       1.909600      0.599700     -0.507400     -0.436916
H      -1.284900      1.435500      0.411200      0.142932
H      -2.756700      1.072400     -0.552400      0.137903
H      -2.305200     -0.008400      0.818800      0.141858
H      -0.629200      0.407900     -1.753600      0.135098
H      -1.777100     -0.935300     -1.494300      0.128633
H       0.479200     -1.739000     -1.020000      0.132107
H      -0.496200     -1.743300      0.476300      0.132110
H       1.767800     -0.967400      0.960100      0.128638
H       0.633100      0.383700      1.235700      0.135105
H       1.298900      1.430900     -0.916600      0.142935
H       2.305100     -0.017900     -1.341700      0.141837
H       2.767000      1.041800      0.042400      0.137927
CCCCC
