20
-37.12248000
C       2.339900      0.022500     -0.723700     -0.436576
C       1.614600      0.718200      0.427600     -0.247627
C       0.697300     -0.228900      1.221400     -0.271842
C      -0.455000     -0.845100      0.407700     -0.267950
C      -1.442400      0.205800     -0.119900     -0.249679
C      -2.658400     -0.455900     -0.762100     -0.441304
H       3.098500      0.711300     -1.151500      0.138135
H       1.626600     -0.246000     -1.530300      0.143367
H       2.856100     -0.892300     -0.362800      0.142186
H       1.041400      1.586300      0.040200      0.133798
H       2.379900      1.121200      1.125800      0.129684
H       0.271200      0.330100      2.083000      0.132193
H       1.312300     -1.053200      1.644000      0.133664
H      -0.053400     -1.446900     -0.435000      0.137446
H      -1.001000     -1.545800      1.076900      0.132255
H      -1.785600      0.854800      0.714900      0.133158
H      -0.948000      0.841400     -0.884600      0.135047
H      -3.203000     -1.071900     -0.015000      0.141896
H      -2.343400     -1.100600     -1.610200      0.141921
H      -3.347400      0.325500     -1.146500      0.140228
CCCCCC
