17
-32.47710000
C      -1.059000     -1.014700      0.807200     -0.452459
C      -0.589200     -0.290200     -0.461600     -0.058913
C      -1.109200      1.153400     -0.491900     -0.452473
C       0.943400     -0.369800     -0.653600     -0.265673
C       1.760900      0.309600      0.448800     -0.432621
H      -0.649900     -2.047100      0.835700      0.141229
H      -2.167900     -1.082300      0.814100      0.140106
H      -0.738700     -0.471700      1.721100      0.145346
H      -1.046500     -0.819500     -1.327200      0.123359
H      -2.219600      1.153600     -0.525600      0.140118
H      -0.789300      1.714100      0.411400      0.145360
H      -0.736200      1.678800     -1.396700      0.141166
H       1.246300     -1.438100     -0.710400      0.131763
H       1.210800      0.093800     -1.628200      0.131811
H       1.533100      1.394000      0.501600      0.142504
H       1.569100     -0.162300      1.434100      0.142627
H       2.842000      0.198400      0.221300      0.136751
CC(C)CC
