17
-35.52796000
C       1.245600      0.205500     -0.882200     -0.467601
C       0.000000      0.000000     -0.000000      0.148362
C      -0.875800      1.266100     -0.045400     -0.467636
C      -0.807700     -1.202100     -0.524100     -0.467608
C       0.437900     -0.269500      1.451800     -0.467519
H       1.843600      1.069800     -0.520500      0.143477
H       1.892400     -0.698300     -0.863400      0.143484
H       0.951200      0.401700     -1.936000      0.143530
H      -0.310800      2.146900      0.329300      0.143546
H      -1.203200      1.478800     -1.086100      0.143469
H      -1.781700      1.138600      0.585900      0.143475
H      -0.192900     -2.127700     -0.499700      0.143527
H      -1.712600     -1.368000      0.099800      0.143473
H      -1.134000     -1.027700     -1.572300      0.143475
H      -0.447600     -0.420900      2.106400      0.143564
H       1.072200     -1.180700      1.506900      0.143496
H       1.023400      0.587500      1.849800      0.143485
CC(C)(C)C
