11
-106.36529000
C      -1.179700     -0.335200      0.483000     -0.421218
C      -0.391900      0.576200     -0.450600     -0.323167
C       1.065700      0.244400     -0.404000      0.646563
O       1.818300      0.819900      0.426900     -0.508514
O       1.581500     -0.732000     -1.250400     -0.565679
H      -1.054500     -1.397400      0.181800      0.156737
H      -2.258300     -0.076300      0.431900      0.152664
H      -0.832600     -0.207200      1.530700      0.157651
H      -0.546500      1.635500     -0.151600      0.174530
H      -0.765400      0.451400     -1.489600      0.177239
H       2.563300     -0.979500     -1.220300      0.353194
CCC(=O)O
