8
-159.63969000
C      -1.683200      0.017500     -0.111500      0.513031
O      -1.782000      1.146200      0.439700     -0.368076
O      -0.440400     -0.591600     -0.324000     -0.476498
C       0.794300     -0.038600      0.037600      0.763843
O       0.868100      1.087700      0.599900     -0.472530
O       1.958000     -0.750100     -0.231200     -0.491276
H      -2.580700     -0.495300     -0.429100      0.171118
H       2.865800     -0.375900      0.018600      0.360386
C(=O)OC(=O)O
