23
-201.35296000
C       3.868900     -0.043900      0.970200     -0.422468
C       3.082000      1.074600      0.297800     -0.326169
C       1.627400      0.964000      0.625900      0.610179
O       1.160000      1.583200      1.620600     -0.506962
O       0.808900      0.138100     -0.149700     -0.443529
C      -0.578400     -0.037500      0.118300     -0.014007
C      -1.176000     -1.000200     -0.909600     -0.282945
C      -2.656700     -1.297300     -0.639300     -0.341455
C      -3.516600     -0.093700     -0.874700      0.644769
O      -3.836800      0.233700     -2.048700     -0.502057
O      -3.935000      0.681500      0.202300     -0.563786
H       4.944700      0.051900      0.712500      0.153257
H       3.506400     -1.034600      0.620900      0.152400
H       3.760700      0.018200      2.074300      0.159250
H       3.472100      2.058400      0.637800      0.175502
H       3.216700      1.010100     -0.803200      0.173949
H      -1.090800      0.947100      0.058000      0.144637
H      -0.706700     -0.454400      1.141300      0.139954
H      -0.612000     -1.957400     -0.869100      0.161121
H      -1.054600     -0.578700     -1.931700      0.169991
H      -2.789100     -1.655800      0.404500      0.183315
H      -2.989900     -2.113300     -1.316600      0.179162
H      -4.505300      1.506200      0.058200      0.355891
CCC(=O)OCCCC(=O)O
