14
-188.61133000
C      -1.526600     -0.127500     -0.388900     -0.425591
C      -0.001900     -0.040200     -0.501100     -0.237837
C       0.650200     -1.239400      0.126100      0.629151
O       1.454600     -1.941100     -0.543900     -0.482063
O       0.382200     -1.570500      1.451900     -0.527494
C       0.513900      1.219700      0.133700      0.631939
O       0.266900      1.474300      1.344000     -0.456070
O       1.280500      2.106100     -0.616500     -0.561572
H      -1.995000      0.750100     -0.884100      0.160428
H      -1.848200     -0.151100      0.674800      0.181879
H      -1.892800     -1.047500     -0.893100      0.161117
H       0.254300     -0.017800     -1.583900      0.211336
H       0.821200     -2.373700      1.885800      0.355972
H       1.640700      2.958700     -0.204700      0.358804
CC(C(=O)O)(C(=O)O)
