17
-184.88724000
C       2.309900      1.777200      1.089100      0.502453
O       2.861900      1.705400     -0.041400     -0.495582
O       0.970000      1.417600      1.265100     -0.434824
C       0.150400      0.905600      0.215800     -0.011042
C       0.489100     -0.564600     -0.062300     -0.301025
C      -0.350800     -1.149300     -1.205300     -0.341269
C      -1.793000     -1.283400     -0.823600      0.643750
O      -2.167700     -2.244200     -0.099500     -0.499361
O      -2.713700     -0.328500     -1.243700     -0.569494
H       2.879600      2.130000      1.937600      0.151265
H       0.278100      1.519500     -0.702900      0.144354
H      -0.909300      0.985200      0.537300      0.150448
H       1.560800     -0.643600     -0.343800      0.170002
H       0.338900     -1.163600      0.862700      0.167341
H      -0.258900     -0.510400     -2.110400      0.185189
H       0.045000     -2.154700     -1.465600      0.182157
H      -3.690000     -0.398300     -0.982700      0.355639
C(=O)OCCCC(=O)O
