8
-102.22995000
C      -0.954200     -0.075200     -0.188600     -0.509725
C       0.440600      0.284500      0.196700      0.664618
O       0.778600      1.495300      0.279500     -0.508217
O       1.354200     -0.716800      0.509800     -0.565516
H      -1.327900      0.625600     -0.964700      0.186852
H      -1.611000     -0.018000      0.704100      0.188250
H      -0.981100     -1.107800     -0.595400      0.189257
H       2.300700     -0.487600      0.789000      0.354480
CC(=O)O
