20
-197.35120000
C      -3.120300      0.226500     -0.642300     -0.424081
C      -2.589700     -0.896600      0.240700     -0.328746
C      -1.164500     -0.641000      0.613100      0.612119
O      -0.897200     -0.025700      1.681300     -0.502870
O      -0.144100     -1.055200     -0.250400     -0.442121
C       1.236000     -0.774900     -0.025800      0.010293
C       1.548000      0.683100     -0.366900     -0.400977
C       3.005600      0.964000     -0.185200      0.654079
O       3.439500      1.352400      0.932300     -0.507689
O       3.888600      0.753800     -1.239700     -0.561003
H      -3.075500      1.196100     -0.101600      0.165165
H      -2.521600      0.299000     -1.575700      0.151839
H      -4.176900      0.018800     -0.913000      0.152252
H      -3.212400     -0.972300      1.158400      0.175508
H      -2.660000     -1.860900     -0.306600      0.176215
H       1.837200     -1.440000     -0.682200      0.158317
H       1.504900     -0.998100      1.030400      0.152082
H       0.956900      1.362000      0.284500      0.208186
H       1.264600      0.885000     -1.422300      0.194239
H       4.880900      0.923900     -1.128000      0.357192
CCC(=O)OCCC(=O)O
