17
-194.75482000
C       1.525400     -0.052700      1.222400     -0.449376
C       1.311500     -0.087300     -0.294100     -0.229110
C      -0.163700      0.076800     -0.727500     -0.266065
C      -0.753200      1.408500     -0.320500      0.645656
O      -0.036900      2.446200     -0.324200     -0.479239
O      -2.111000      1.518600     -0.029000     -0.556139
C      -1.000100     -1.085500     -0.256000      0.656187
O      -1.454200     -1.117700      0.920200     -0.476302
O      -1.237200     -2.153600     -1.115700     -0.562234
H       1.043000     -0.926500      1.706900      0.160889
H       1.119800      0.883200      1.659900      0.164893
H       2.613200     -0.096600      1.440400      0.149078
H       1.921600      0.718100     -0.758300      0.160629
H       1.702000     -1.052200     -0.685800      0.150013
H      -0.176900      0.059800     -1.839200      0.209895
H      -2.519800      2.412800      0.214900      0.362439
H      -1.783500     -2.951700     -0.814400      0.358785
CCC(C(=O)O)(C(=O)O)
