20
-121.13554000
C       2.173300     -1.683900      0.083600     -0.440102
C       1.085400     -0.860200     -0.599600     -0.248152
C       0.831400      0.453300      0.154100     -0.272155
C      -0.143500      1.386800     -0.586800     -0.255061
C      -1.581300      0.851900     -0.682900     -0.344656
C      -2.203700      0.669300      0.666900      0.651766
O      -2.641400      1.666600      1.300700     -0.511808
O      -2.268700     -0.599300      1.234500     -0.566715
H       2.327800     -2.631600     -0.474300      0.140434
H       1.874300     -1.929200      1.125000      0.145510
H       3.131400     -1.121800      0.099300      0.141393
H       1.402100     -0.642200     -1.642700      0.131092
H       0.156500     -1.467600     -0.630000      0.139723
H       1.796700      0.994000      0.267400      0.139472
H       0.452800      0.236200      1.176200      0.145452
H      -0.160700      2.368300     -0.063900      0.152031
H       0.239100      1.574000     -1.613800      0.145260
H      -2.192500      1.578400     -1.260700      0.173636
H      -1.605700     -0.105500     -1.243500      0.180885
H      -2.673400     -0.737400      2.152800      0.351996
CCCCCC(=O)O
