11
-172.80258000
C      -2.064400      0.188400     -0.247200     -0.506607
C      -0.735100     -0.255200      0.262300      0.634485
O      -0.679300     -1.147700      1.151300     -0.388286
O       0.428800      0.294900     -0.291400     -0.471440
C       1.733800     -0.037900      0.091900      0.762880
O       1.954200     -0.880700      1.003600     -0.473885
O       2.803600      0.578100     -0.547700     -0.497817
H      -1.980000      1.199100     -0.698700      0.196582
H      -2.798200      0.228400      0.585300      0.191399
H      -2.422300     -0.525800     -1.017600      0.193248
H       3.758900      0.358500     -0.291800      0.359439
CC(=O)OC(=O)O
