8
-18.19704000
C       0.751500      0.079900     -0.076300     -0.418592
C      -0.751500     -0.079900      0.076300     -0.418611
H       0.972700      0.791400     -0.899600      0.139552
H       1.186400      0.469700      0.868100      0.139590
H       1.212600     -0.902600     -0.310900      0.139463
H      -1.186400     -0.469700     -0.868100      0.139561
H      -0.972700     -0.791400      0.899600      0.139565
H      -1.212600      0.902600      0.310900      0.139472
CC
