20
-37.19632000
C       2.781200      0.109700     -0.128800     -0.436020
C       1.695600      0.358900      0.918200     -0.252660
C       0.372300     -0.347900      0.585200     -0.268739
C      -0.372300      0.317100     -0.585200     -0.268708
C      -1.695600     -0.389700     -0.918200     -0.252656
C      -2.781200     -0.140400      0.128800     -0.436016
H       2.521600      0.597500     -1.090700      0.141702
H       2.922200     -0.980000     -0.291700      0.142224
H       3.741200      0.539700      0.226800      0.138540
H       2.062300     -0.025800      1.894700      0.131039
H       1.528900      1.452300      1.030200      0.134054
H      -0.265200     -0.307300      1.493300      0.133802
H       0.564900     -1.418800      0.355300      0.136050
H      -0.564900      1.388000     -0.355300      0.136052
H       0.265200      0.276500     -1.493300      0.133790
H      -2.062300     -0.005000     -1.894700      0.131049
H      -1.528900     -1.483100     -1.030200      0.134031
H      -2.521600     -0.628300      1.090700      0.141706
H      -2.922200      0.949200      0.291700      0.142222
H      -3.741200     -0.570500     -0.226800      0.138536
CCCCCC
