11
-23.08660000
C       1.185600     -0.487000     -0.026500     -0.438955
C      -0.172500     -0.146800      0.579700     -0.229612
C      -1.053400      0.599400     -0.417600     -0.438819
H       1.801500     -1.028200      0.722200      0.138601
H       1.058100     -1.137000     -0.918400      0.142215
H       1.719700      0.441200     -0.322000      0.142180
H      -0.023500      0.485000      1.481800      0.130705
H      -0.681700     -1.085100      0.888400      0.130682
H      -0.570100      1.552300     -0.721900      0.142182
H      -2.032100      0.832000      0.052600      0.138638
H      -1.231700     -0.025900     -1.318300      0.142182
CCC
