23
-42.43341000
C      -1.971900      0.354600     -1.798400     -0.458879
C      -1.066500     -0.200100     -0.691000     -0.058929
C      -1.914200     -0.944900      0.350900     -0.452943
C      -0.246600      0.950500     -0.059200     -0.283856
C       0.756300      0.519800      1.031400     -0.268579
C       1.796700     -0.522500      0.585300     -0.248872
C       2.677900     -0.032300     -0.562900     -0.436316
H      -2.701200      1.082300     -1.381700      0.144436
H      -2.530100     -0.471200     -2.289400      0.142674
H      -1.361400      0.863100     -2.575000      0.140495
H      -0.376300     -0.926700     -1.170100      0.130764
H      -2.558000     -1.701700     -0.146200      0.140894
H      -2.562500     -0.235700      0.909000      0.143668
H      -1.264000     -1.486500      1.068500      0.142204
H       0.305500      1.491700     -0.857600      0.136491
H      -0.946600      1.687700      0.392600      0.133664
H       1.293000      1.426300      1.387500      0.132338
H       0.203200      0.122800      1.908700      0.133306
H       2.452500     -0.748200      1.453900      0.129424
H       1.301500     -1.474200      0.300400      0.134814
H       2.087100      0.060300     -1.497800      0.143207
H       3.132700      0.949500     -0.311800      0.142055
H       3.492900     -0.764900     -0.741400      0.137941
CC(C)CCCC
