17
-35.52767000
C      -0.713400     -1.342700     -0.245300     -0.467624
C       0.000000      0.000000     -0.000000      0.148420
C       1.177300     -0.213800      0.969700     -0.467582
C      -0.993600      1.004900      0.612400     -0.467639
C       0.529700      0.551700     -1.336800     -0.467526
H      -0.012700     -2.083500     -0.687900      0.143541
H      -1.104000     -1.758800      0.708500      0.143441
H      -1.567900     -1.210400     -0.943800      0.143451
H       0.816100     -0.612300      1.942500      0.143529
H       1.907400     -0.937000      0.546100      0.143490
H       1.706700      0.744800      1.160600      0.143504
H      -1.852400      1.173700     -0.072700      0.143484
H      -0.498000      1.982400      0.797700      0.143584
H      -1.388500      0.625300      1.579600      0.143449
H       1.049000      1.522200     -1.181900      0.143471
H       1.249700     -0.159600     -1.796400      0.143461
H      -0.305400      0.713400     -2.052300      0.143546
CC(C)(C)C
