17
-32.47930000
C      -0.715300      1.429000     -0.498900     -0.452433
C      -0.677100      0.179900      0.392000     -0.058930
C      -1.275200     -1.030900     -0.337100     -0.452556
C       0.737600     -0.105500      0.948000     -0.265756
C       1.792000     -0.415600     -0.118400     -0.432650
H      -1.768800      1.694000     -0.731600      0.140109
H      -0.181600      1.255100     -1.456800      0.145395
H      -0.250100      2.290900      0.025100      0.141205
H      -1.328800      0.386000      1.270200      0.123429
H      -2.346200     -0.842700     -0.564700      0.140154
H      -0.746000     -1.224900     -1.293600      0.145405
H      -1.212200     -1.936500      0.303200      0.141130
H       0.683700     -0.964700      1.651700      0.131830
H       1.079200      0.773300      1.537300      0.131778
H       1.520000     -1.324000     -0.694000      0.142552
H       1.921800      0.441700     -0.810200      0.142545
H       2.767000     -0.604900      0.377900      0.136792
CC(C)CC
