15
-8.57343000
C       1.783500     -0.757200      0.107500     -0.441593
C       1.293200      0.413800     -0.694200     -0.141390
C       0.121500      1.035000     -0.470700     -0.174751
C      -0.873900      0.616400      0.581200     -0.254232
C      -1.826900     -0.444900      0.040700     -0.427423
H       1.076800     -1.607800      0.025000      0.154930
H       2.771200     -1.083700     -0.279800      0.145307
H       1.903700     -0.468900      1.172700      0.154238
H       1.931600      0.788600     -1.489100      0.138817
H      -0.134000      1.887100     -1.094100      0.139776
H      -1.470100      1.506400      0.876100      0.137197
H      -0.363900      0.244200      1.494600      0.141086
H      -2.376700     -0.053300     -0.841900      0.144448
H      -1.272300     -1.359700     -0.253700      0.144313
H      -2.563800     -0.715900      0.825800      0.139277
C/C=C\CC
