25
-2.01568000
C      -4.018700     -2.118800     -0.197700     -0.446053
C      -2.873500     -1.238800      0.196600     -0.142800
C      -2.015300     -0.771300     -0.720800     -0.176234
C      -0.869400      0.127000     -0.343300     -0.276294
C       0.224200     -0.653300      0.401800     -0.264085
C       1.368600      0.251100      0.885500     -0.264685
C       2.247000      0.761400     -0.267000     -0.287097
C       3.450500      1.498200      0.253500     -0.106004
C       3.344200      2.696500      0.835500     -0.345865
H      -3.637000     -3.045800     -0.675300      0.150578
H      -4.606500     -2.394700      0.702700      0.149629
H      -4.681800     -1.582200     -0.908800      0.155665
H      -2.747400     -0.979600      1.244300      0.141389
H      -2.160500     -1.016500     -1.769800      0.143215
H      -1.245500      0.963600      0.285400      0.142889
H      -0.449200      0.557900     -1.276000      0.146404
H       0.627900     -1.456800     -0.252900      0.138540
H      -0.222800     -1.142000      1.295000      0.139908
H       0.950900      1.108500      1.457400      0.142316
H       2.002800     -0.340600      1.582100      0.135322
H       2.598300     -0.102100     -0.872300      0.149052
H       1.668500      1.437700     -0.931600      0.147734
H       4.434900      1.057500      0.125900      0.138206
H       4.232900      3.209300      1.188500      0.143344
H       2.376900      3.173800      0.959900      0.144926
CC=CCCCCC=C
