12
-4.10477000
C       1.446200     -0.558700      0.023200     -0.439291
C       0.690000      0.599600     -0.560200     -0.152680
C      -0.626000      0.787800     -0.370100     -0.152582
C      -1.478400     -0.140400      0.445600     -0.439279
H       2.513800     -0.494500     -0.274100      0.145005
H       1.030000     -1.516000     -0.354800      0.153494
H       1.384900     -0.535700      1.131500      0.153534
H       1.236100      1.318100     -1.164600      0.139856
H      -1.099000      1.652100     -0.827300      0.139903
H      -1.463100     -1.159500      0.005400      0.153509
H      -2.526100      0.226300      0.453900      0.145000
H      -1.108200     -0.179200      1.491600      0.153533
C/C=C\C
