18
-21.19219000
C      -1.153400     -1.356500      0.885800     -0.440616
C      -0.632900     -0.047700      0.330800     -0.018383
C      -1.555900      1.152000      0.346600     -0.440656
C       0.632900      0.047700     -0.169600     -0.018401
C       1.555900     -1.152000     -0.185400     -0.440695
C       1.153400      1.356500     -0.724600     -0.440557
H      -0.525400     -1.684100      1.740500      0.151436
H      -2.197100     -1.264800      1.251500      0.146997
H      -1.141500     -2.136400      0.096000      0.151416
H      -1.727200      1.514100     -0.688700      0.151419
H      -1.111100      1.966500      0.955800      0.151447
H      -2.545500      0.906900      0.784700      0.146953
H       1.727200     -1.514100      0.849800      0.151441
H       2.545500     -0.906900     -0.623600      0.146982
H       1.111100     -1.966500     -0.794600      0.151446
H       1.141500      2.136400      0.065200      0.151385
H       0.525400      1.684100     -1.579300      0.151416
H       2.197100      1.264800     -1.090400      0.146972
CC(C)=C(C)C
