22
-9.45688000
C       1.813200      0.726000     -0.538100     -0.194444
C       3.179800      0.120500     -0.657100     -0.431156
C       0.823500      0.183400      0.191300      0.022339
C       1.033000     -1.072900      0.998100     -0.442770
C      -0.484900      0.874800      0.224600     -0.260093
C      -1.661800      0.296400     -0.082100      0.077948
C      -2.908600      1.136600     -0.026500     -0.459490
C      -1.756600     -1.135600     -0.546400     -0.460357
H       1.623800      1.636600     -1.096000      0.147694
H       3.792100      0.718600     -1.364000      0.144313
H       3.106600     -0.917700     -1.043900      0.149803
H       3.686000      0.119500      0.330800      0.151096
H       0.207000     -1.215500      1.725900      0.152248
H       1.080500     -1.952300      0.322200      0.153486
H       1.972900     -1.009300      1.585000      0.154288
H      -0.470000      1.936400      0.447300      0.158101
H      -2.821400      1.987300     -0.735300      0.156325
H      -3.812400      0.550400     -0.293900      0.156157
H      -3.047400      1.533400      1.001600      0.152268
H      -2.761700     -1.360900     -0.959500      0.153499
H      -1.579800     -1.826500      0.302300      0.156498
H      -1.013600     -1.329200     -1.349000      0.162244
C(C)=C(C)C=C(C)C
