20
-262.39623000
C       3.882600      0.003700      0.260100     -0.506665
C       2.525100      0.270300     -0.295100      0.625230
O       2.070800     -0.466200     -1.212500     -0.492159
O       1.754200      1.309700      0.237900     -0.399946
C       0.429200      1.604300     -0.198300     -0.092766
C      -0.521800      0.554800      0.279700      0.577817
O      -0.840800      0.510900      1.499100     -0.452162
O      -1.019100     -0.389600     -0.625400     -0.404717
C      -1.927800     -1.423800     -0.256100     -0.086363
C      -3.284700     -0.854100      0.008700      0.606952
O      -3.749700     -0.843300      1.179700     -0.498991
O      -4.024800     -0.316800     -1.039400     -0.536830
H       4.280300      0.918900      0.746600      0.188470
H       4.574600     -0.299000     -0.554000      0.187440
H       3.821200     -0.810800      1.011300      0.194973
H       0.124400      2.586200      0.220900      0.184709
H       0.398100      1.681400     -1.306800      0.180035
H      -1.545600     -1.970500      0.633800      0.184892
H      -2.004100     -2.147000     -1.094500      0.183254
H      -4.942200      0.080800     -0.877100      0.356826
CC(=O)OCC(=O)OCC(=O)O
