17
-191.36715000
C       3.213400     -0.305700      0.380700     -0.514273
C       1.826100     -0.607300     -0.074000      0.627590
O       1.644100     -1.175900     -1.184800     -0.501642
O       0.741100     -0.222400      0.721600     -0.431230
C      -0.619800     -0.410000      0.337700      0.008710
C      -1.031600      0.631900     -0.703600     -0.398356
C      -2.473900      0.470500     -1.065000      0.643683
O      -2.806700     -0.296100     -2.008100     -0.489606
O      -3.451000      1.134300     -0.329900     -0.563422
H       3.891600     -1.144400      0.116400      0.187783
H       3.569700      0.623300     -0.110700      0.187327
H       3.230000     -0.164800      1.481800      0.186304
H      -1.255200     -0.293000      1.241800      0.153917
H      -0.767700     -1.439800     -0.056500      0.150224
H      -0.869100      1.651100     -0.291700      0.193284
H      -0.407900      0.525600     -1.616900      0.205062
H      -4.433100      1.022900     -0.551800      0.354647
CC(=O)OCCC(=O)O
