11
-172.80534000
C      -2.085400     -0.094900      0.172600     -0.506245
C      -0.692300      0.328700     -0.148900      0.634597
O      -0.505700      1.319200     -0.906500     -0.388453
O       0.383000     -0.353500      0.436100     -0.471680
C       1.734200     -0.053800      0.222700      0.763248
O       2.084300      0.880600     -0.548300     -0.473878
O       2.704200     -0.806300      0.875100     -0.498108
H      -2.732900      0.011700     -0.723300      0.191304
H      -2.484900      0.538700      0.991400      0.193213
H      -2.094200     -1.156800      0.496200      0.196539
H       3.689600     -0.613700      0.740200      0.359462
CC(=O)OC(=O)O
