11
-168.65159000
C      -1.741400     -0.588700      0.708800      0.507151
O      -1.242500     -0.392600      1.849200     -0.468331
O      -1.212300      0.029400     -0.428500     -0.402428
C      -0.077300      0.891500     -0.392900     -0.092224
C       1.170100      0.101000     -0.158000      0.606556
O       1.786700      0.200900      0.936300     -0.497698
O       1.637000     -0.762000     -1.144000     -0.533661
H      -2.595800     -1.243600      0.607300      0.158323
H       0.009000      1.407500     -1.371700      0.181954
H      -0.209200      1.667900      0.392500      0.182382
H       2.475700     -1.311300     -0.998800      0.357975
C(=O)OCC(=O)O
