17
-183.88841000
C      -3.198700      0.533700      0.043800      0.499550
O      -3.908700     -0.507400      0.050500     -0.493187
O      -1.808000      0.457000     -0.057700     -0.436926
C      -1.113200     -0.782900     -0.158500     -0.012884
C       0.392400     -0.536100     -0.255700     -0.276252
C       0.946200      0.096200      1.025700     -0.338463
C       2.422100      0.309000      0.907400      0.641722
O       3.222000     -0.592200      1.276100     -0.505786
O       2.909600      1.486200      0.348600     -0.561129
H      -3.672900      1.502600      0.118000      0.151218
H      -1.336800     -1.416300      0.728000      0.139624
H      -1.449600     -1.320200     -1.071800      0.140849
H       0.597100      0.128800     -1.123800      0.168248
H       0.900400     -1.509000     -0.435900      0.161326
H       0.455300      1.076200      1.209100      0.190510
H       0.737100     -0.564700      1.895300      0.177781
H       3.905800      1.639000      0.246500      0.353799
C(=O)OCCCC(=O)O
