14
-179.32555000
C      -1.597200      1.552300      0.295900      0.509842
O      -1.560300      1.971700     -0.891800     -0.492432
O      -1.300700      0.220800      0.603400     -0.434508
C      -0.892300     -0.738600     -0.371700      0.006863
C       0.560800     -0.512800     -0.797900     -0.395844
C       1.489900     -0.641100      0.368500      0.655540
O       1.928400     -1.773400      0.705100     -0.504205
O       1.835900      0.486700      1.106200     -0.559795
H      -1.869700      2.231700      1.091600      0.155179
H      -1.559900     -0.688000     -1.259400      0.146790
H      -0.992600     -1.755400      0.065000      0.161642
H       0.672700      0.494600     -1.251700      0.207713
H       0.834300     -1.262800     -1.571300      0.188037
H       2.450700      0.414400      1.908000      0.355179
C(=O)OCCC(=O)O
