20
-195.11022000
C      -3.373800     -0.389600     -0.798100     -0.423201
C      -2.745100      0.470500      0.291500     -0.327249
C      -1.355900      0.870200     -0.091000      0.612012
O      -1.161900      1.956400     -0.702400     -0.499883
O      -0.290500      0.012100      0.195200     -0.441013
C       1.054500      0.312900     -0.162000      0.003722
C       1.965600     -0.823800      0.290400     -0.375332
C       3.388100     -0.532700     -0.068600      0.643013
O       3.848400     -0.907100     -1.180300     -0.492217
O       4.189900      0.190500      0.808700     -0.558178
H      -4.402000     -0.679700     -0.495500      0.154137
H      -2.775300     -1.312700     -0.954500      0.154428
H      -3.430500      0.177200     -1.752200      0.160606
H      -3.367800      1.377000      0.453600      0.175134
H      -2.714200     -0.103300      1.242400      0.173959
H       1.126100      0.433600     -1.265600      0.149726
H       1.365000      1.260900      0.330500      0.148057
H       1.644900     -1.773000     -0.191700      0.191627
H       1.883900     -0.949300      1.391600      0.194764
H       5.150600      0.409900      0.573600      0.355887
CCC(=O)OCCC(=O)O
