14
-111.40548000
C      -2.019900      0.193100      0.206800     -0.437547
C      -0.516300      0.325200      0.430800     -0.230677
C       0.268800     -0.519000     -0.576700     -0.346521
C       1.739600     -0.374300     -0.346300      0.643818
O       2.336200     -1.158200      0.439500     -0.507513
O       2.440200      0.655000     -0.967300     -0.565713
H      -2.290200      0.541700     -0.812800      0.145738
H      -2.562400      0.814600      0.950000      0.146659
H      -2.336800     -0.864600      0.329200      0.146353
H      -0.276200     -0.005900      1.465100      0.148162
H      -0.229800      1.394900      0.327800      0.147540
H       0.030500     -0.189700     -1.611400      0.179260
H      -0.017100     -1.589300     -0.478300      0.177116
H       3.433400      0.776500     -0.809100      0.353325
CCCC(=O)O
