11
-183.69388000
C      -0.057700      0.849500     -0.196200     -0.425680
C       1.236600      0.107500     -0.122400      0.645260
O       1.893100     -0.123800     -1.172900     -0.465260
O       1.695500     -0.365100      1.103200     -0.541217
C      -1.187500     -0.113100     -0.364500      0.645591
O      -1.573100     -0.439300     -1.519000     -0.464797
O      -1.785800     -0.681900      0.755600     -0.542081
H      -0.204100      1.433100      0.737500      0.219355
H      -0.037800      1.564600     -1.047300      0.212906
H       2.563500     -0.883400      1.168000      0.357954
H      -2.542700     -1.348100      0.658100      0.357969
C(C(=O)O)(C(=O)O)
