17
-325.53011000
C      -1.864500      1.542500     -0.346200      0.510880
O      -2.668000      0.575400     -0.426400     -0.432443
O      -0.488400      1.336300     -0.173900     -0.381869
C       0.142600      0.053100     -0.045400      0.035220
C       1.622800      0.268000      0.139700      0.626598
O       2.374600     -0.701800      0.433600     -0.433171
O       2.175000      1.533300     -0.042800     -0.512334
C      -0.412400     -0.650200      1.177700      0.611953
O      -1.241800     -1.594200      1.064200     -0.427921
O      -0.056700     -0.203800      2.448000     -0.516508
C      -0.042400     -0.758500     -1.310500      0.612206
O      -0.348100     -0.188600     -2.393000     -0.433256
O       0.203900     -2.129700     -1.304900     -0.527155
H      -2.242200      2.553100     -0.416000      0.172827
H       3.170100      1.687200      0.068600      0.361534
H      -0.434500     -0.643900      3.278600      0.365128
H       0.110100     -2.678200     -2.151300      0.368315
C(=O)OC(C(=O)O)(C(=O)O)C(=O)O
