23
-268.05863000
C       4.224400      0.828600     -0.755500     -0.513791
C       2.924100      0.117500     -0.916700      0.625544
O       2.188600      0.380100     -1.906900     -0.503649
O       2.519400     -0.806900      0.052900     -0.435934
C       1.264300     -1.483700      0.017200     -0.010360
C       0.136700     -0.547400      0.460900     -0.301611
C      -1.210000     -1.275400      0.475000     -0.336092
C      -2.301500     -0.346200      0.902600      0.615051
O      -2.605100     -0.264200      2.123900     -0.387304
O      -2.935700      0.450900     -0.060000     -0.464058
C      -3.957500      1.370200      0.207100      0.761600
O      -4.394800      1.542200      1.377200     -0.476867
O      -4.497100      2.104200     -0.843100     -0.493754
H       4.895300      0.247200     -0.088900      0.186386
H       4.717300      0.949500     -1.743200      0.188119
H       4.045700      1.829000     -0.309600      0.189036
H       1.070300     -1.876100     -1.005400      0.144049
H       1.315900     -2.347900      0.713300      0.142651
H       0.364100     -0.165600      1.480700      0.165192
H       0.079700      0.318900     -0.233500      0.175285
H      -1.440800     -1.660200     -0.542100      0.191673
H      -1.166000     -2.141200      1.171800      0.180046
H      -5.237400      2.776600     -0.681200      0.358788
CC(=O)OCCCC(=O)OC(=O)O
