20
-254.74876000
C      -3.503100      0.137900      1.022400      0.502136
O      -3.517500      1.301000      1.507300     -0.482356
O      -2.565700     -0.227700      0.054000     -0.446452
C      -1.581000      0.675700     -0.440300     -0.019025
C      -0.702000     -0.019800     -1.483900     -0.276286
C       0.073000     -1.216300     -0.913600     -0.331969
C       1.103400     -0.784400      0.084000      0.614036
O       0.885400     -0.950500      1.315200     -0.383086
O       2.281000     -0.175700     -0.370600     -0.474653
C       3.311000      0.293200      0.453900      0.763032
O       3.242200      0.194300      1.709100     -0.472497
O       4.429000      0.879000     -0.129000     -0.500714
H      -4.227800     -0.589600      1.361100      0.150854
H      -2.085200      1.543800     -0.917800      0.140033
H      -0.956100      1.052600      0.398200      0.149689
H      -1.349800     -0.376700     -2.313900      0.164223
H       0.011800      0.717900     -1.911700      0.166607
H       0.589600     -1.737500     -1.747700      0.182964
H      -0.628400     -1.945100     -0.452100      0.193734
H       5.190200      1.227900      0.441300      0.359729
C(=O)OCCCC(=O)OC(=O)O
