20
-339.34186000
C       3.169900      0.098500      0.275800     -0.501048
C       1.785200      0.144200     -0.273900      0.633022
O       1.607000      0.436000     -1.487500     -0.452152
O       0.697600     -0.100000      0.578300     -0.387402
C      -0.682900     -0.051800      0.187100      0.034431
C      -1.005000      1.339000     -0.322700      0.617309
O      -1.025400      2.311300      0.480300     -0.425175
O      -1.214700      1.571600     -1.680400     -0.524509
C      -1.530800     -0.350400      1.397500      0.625653
O      -2.781500     -0.189500      1.353900     -0.433781
O      -0.942000     -0.839400      2.560900     -0.511130
C      -0.978500     -1.116500     -0.846900      0.622197
O      -0.183400     -2.080900     -1.013800     -0.442681
O      -2.171300     -1.081300     -1.565700     -0.529296
H       3.507100      1.128500      0.514100      0.193891
H       3.860400     -0.351500     -0.468300      0.195603
H       3.190700     -0.514900      1.200900      0.193594
H      -1.406600      2.504800     -2.024700      0.366786
H      -1.503000     -1.055000      3.376300      0.359705
H      -2.392700     -1.802700     -2.241400      0.364982
CC(=O)OC(C(=O)O)(C(=O)O)C(=O)O
