17
-249.72654000
C      -2.596200      1.258100      0.690900      0.506908
O      -3.516500      1.453400     -0.147500     -0.482092
O      -1.599700      0.307500      0.459000     -0.445305
C      -1.559300     -0.489700     -0.721700      0.000590
C      -0.354900     -1.427200     -0.680100     -0.366938
C       0.926900     -0.654300     -0.677500      0.643316
O       1.454900     -0.323200     -1.774000     -0.421490
O       1.493600     -0.274800      0.546900     -0.479423
C       2.673700      0.465300      0.689200      0.777691
O       3.331700      0.849100     -0.315600     -0.465024
O       3.123800      0.779600      1.966400     -0.494005
H      -2.576700      1.835300      1.605000      0.156687
H      -1.498100      0.164900     -1.619200      0.163264
H      -2.487500     -1.097900     -0.788300      0.143568
H      -0.408100     -2.061400      0.230900      0.207315
H      -0.381600     -2.098400     -1.565800      0.193996
H       3.974000      1.313700      2.101400      0.360941
C(=O)OCCC(=O)OC(=O)O
