20
-272.42586000
C      -1.289200     -1.777800      0.279200     -0.447358
C      -1.302600     -0.263000      0.036800     -0.223069
C       0.113100      0.379500     -0.080400     -0.186007
C       0.893300      0.240500      1.214900      0.638486
O       0.292600      0.183900      2.322800     -0.464962
O       2.286000      0.282400      1.200100     -0.516094
C      -0.010400      1.867300     -0.352800      0.619575
O       1.009800      2.534400     -0.679500     -0.428929
O      -1.231000      2.522900     -0.203200     -0.538652
C       0.853300     -0.281300     -1.232000      0.647954
O       0.638300      0.087100     -2.419500     -0.462870
O       1.705100     -1.359400     -0.998700     -0.533100
H      -0.706100     -2.032100      1.188200      0.166507
H      -0.860200     -2.312200     -0.593800      0.151407
H      -2.330500     -2.135800      0.422300      0.152269
H      -1.875700     -0.070400     -0.897600      0.165539
H      -1.868600      0.214100      0.867400      0.175870
H       2.817400      0.226600      2.060700      0.359892
H      -1.310600      3.518800     -0.370000      0.362156
H       2.175900     -1.825600     -1.764800      0.361384
CCC(C(=O)O)(C(=O)O)C(=O)O
