17
-188.81868000
C       2.196500      0.131900     -0.413000     -0.438663
C       1.337500     -0.479800      0.693400     -0.247737
C      -0.116100     -0.716700      0.255300     -0.257089
C      -0.902300      0.594400      0.088400     -0.340326
C      -2.378900      0.340100     -0.225100      0.549731
F      -2.977800     -0.352500      0.812300     -0.211017
F      -3.027700      1.550800     -0.385200     -0.215662
F      -2.502000     -0.390200     -1.394000     -0.210635
H       3.255000      0.169000     -0.079600      0.142249
H       1.869600      1.168100     -0.637700      0.141798
H       2.138800     -0.483600     -1.335800      0.146985
H       1.782100     -1.458300      0.977400      0.138977
H       1.365200      0.174500      1.591700      0.137265
H      -0.609000     -1.338100      1.034400      0.149737
H      -0.131000     -1.294000     -0.695000      0.153541
H      -0.466800      1.191300     -0.740800      0.181345
H      -0.833000      1.192900      1.023000      0.179502
CCCCC(F)(F)F
