11
-328.19750000
C       0.042400     -0.614200     -0.132000     -0.431365
C       1.264800      0.289200      0.071100      0.546862
F       1.275200      1.309000     -0.863600     -0.180010
F       2.415000     -0.462900     -0.082800     -0.191354
F       1.259800      0.834000      1.342700     -0.179876
C      -1.293400      0.124000      0.017700      0.546818
F      -1.395900      1.136500     -0.919300     -0.180047
F      -2.329900     -0.769400     -0.181900     -0.191341
F      -1.411300      0.661400      1.287000     -0.179782
H       0.080500     -1.442800      0.608300      0.220085
H       0.092700     -1.064800     -1.147100      0.220009
C(C(F)(F)F)C(F)(F)F
