17
-127.67308000
C      -1.621800      0.953600      0.389500     -0.443793
C      -0.419200     -0.002300      0.399400     -0.155659
C      -0.793200     -1.349800     -0.249500      0.272923
F      -1.865800     -1.920100      0.413600     -0.229655
F      -1.124700     -1.178800     -1.582700     -0.223680
C       0.788900      0.666800     -0.296600     -0.262437
C       2.094300     -0.106200     -0.102800     -0.444907
H      -1.362200      1.902400      0.905800      0.146590
H      -2.482800      0.502300      0.926700      0.157891
H      -1.930100      1.187700     -0.652100      0.157648
H      -0.154200     -0.192100      1.463400      0.155492
H       0.056100     -2.059600     -0.180700      0.138278
H       0.591300      0.787000     -1.384200      0.149880
H       0.937100      1.683400      0.129700      0.145175
H       2.941500      0.499300     -0.488500      0.148191
H       2.270100     -0.311500      0.974500      0.145379
H       2.074900     -1.062000     -0.665600      0.142684
CC(C(F)(F))CC
