17
-117.31699000
C      -2.396400      0.106000      0.326400     -0.437158
C      -0.902200     -0.092400      0.564900     -0.245889
C      -0.145300     -0.242600     -0.763200     -0.318157
C       1.341100     -0.587500     -0.564900      0.064623
F       1.888200     -0.929300     -1.789900     -0.212841
C       2.151200      0.567700      0.030400     -0.107644
F       2.061200      1.691300     -0.772300     -0.189849
H      -2.916300      0.222400      1.300700      0.142395
H      -2.824000     -0.773600     -0.200500      0.144864
H      -2.572000      1.019100     -0.281500      0.147803
H      -0.518700      0.786100      1.125400      0.136600
H      -0.756500     -1.001800      1.187600      0.132635
H      -0.243000      0.689800     -1.361200      0.165728
H      -0.612500     -1.065400     -1.348000      0.157538
H       1.429200     -1.471200      0.104000      0.134445
H       3.217900      0.267700      0.103500      0.145929
H       1.798100      0.813700      1.052800      0.138978
CCCC(F)C(F)
