14
-122.87525000
C      -1.096200     -0.985200      0.017600     -0.451677
C       0.098200     -0.111600     -0.384600     -0.133402
C       1.302100     -0.374800      0.535000      0.269148
F       1.016000     -0.007700      1.839000     -0.221743
F       2.404400      0.336500      0.094500     -0.227639
C      -0.295100      1.371500     -0.380100     -0.440992
H      -0.815700     -2.059400     -0.020300      0.144361
H      -1.436500     -0.738800      1.046400      0.159184
H      -1.941000     -0.825100     -0.686000      0.153451
H       0.390000     -0.388000     -1.422000      0.152350
H       1.559000     -1.455500      0.517500      0.136088
H      -0.607700      1.694500      0.636100      0.157767
H       0.560100      1.998800     -0.709600      0.156065
H      -1.137500      1.544700     -1.083400      0.147038
CC(C(F)F)C
