11
-117.10479000
C       0.031900     -0.528200     -0.365000     -0.324582
C      -1.274000      0.088700      0.137800      0.284411
F      -1.413200      1.380300     -0.338700     -0.222826
F      -1.301100      0.101900      1.521200     -0.222779
C       1.256100      0.257600      0.101300     -0.423542
H       0.108000     -1.573500      0.005100      0.158554
H       0.018600     -0.555400     -1.476000      0.158667
H      -2.128800     -0.518400     -0.228000      0.134499
H       1.307900      0.274400      1.210600      0.156418
H       1.218000      1.299700     -0.281000      0.156373
H       2.176600     -0.226900     -0.287200      0.144807
C(C(F)F)C
