32
-97.49796000
C      -4.174100      1.540100      0.988100     -0.436458
C      -4.081000      0.055700      0.636100     -0.251734
C      -2.658800     -0.503700      0.795900     -0.267791
C      -1.685000      0.054100     -0.257500     -0.272490
C      -0.339400     -0.689400     -0.274100     -0.271742
C       0.537100     -0.349900      0.943700     -0.267090
C       1.849700     -1.154300      0.980900     -0.271516
C       2.804100     -0.905000     -0.201300     -0.262255
C       3.272400      0.555200     -0.296100     -0.307901
C       4.353000      0.728300     -1.362400     -0.054611
F       5.497400      0.036900     -1.006200     -0.218790
H      -5.237400      1.858900      0.963500      0.138578
H      -3.612400      2.153700      0.253600      0.141983
H      -3.773700      1.723900      2.007700      0.142129
H      -4.441100     -0.103900     -0.403500      0.133678
H      -4.757900     -0.506700      1.315200      0.131366
H      -2.713400     -1.609300      0.690900      0.133308
H      -2.291800     -0.278200      1.819600      0.136682
H      -1.505400      1.136300     -0.080200      0.136779
H      -2.145500     -0.051800     -1.264200      0.134069
H       0.194000     -0.385500     -1.199300      0.134343
H      -0.513200     -1.786400     -0.327200      0.137471
H       0.751300      0.739300      0.968600      0.134257
H      -0.018500     -0.591900      1.873500      0.135226
H       2.383100     -0.914300      1.926600      0.136075
H       1.605000     -2.238400      1.015100      0.136341
H       2.327600     -1.215100     -1.155000      0.136126
H       3.690900     -1.560000     -0.056300      0.143717
H       2.414800      1.206700     -0.567200      0.147650
H       3.674800      0.889900      0.684800      0.154799
H       3.989100      0.359500     -2.345100      0.130785
H       4.604200      1.805400     -1.461300      0.127015
CCCCCCCCCCF
