17
-72.93823000
C      -2.332700     -0.205100     -0.510600     -0.442204
C      -0.899900     -0.560800     -0.123500     -0.248731
C      -0.176400      0.647300      0.488400     -0.264542
C       1.208700      0.291400      1.053100     -0.312940
C       2.240600     -0.031600     -0.031000     -0.048406
F       2.032900     -1.300400     -0.540300     -0.219693
H      -2.826400     -1.090900     -0.963000      0.142898
H      -2.337800      0.622100     -1.252100      0.141262
H      -2.910600      0.102600      0.386900      0.140939
H      -0.366800     -0.899200     -1.036700      0.143506
H      -0.923200     -1.398300      0.607200      0.137911
H      -0.078400      1.453600     -0.271300      0.135072
H      -0.790900      1.047700      1.324600      0.136211
H       1.128600     -0.560600      1.762900      0.158418
H       1.578200      1.167600      1.629000      0.142227
H       2.195700      0.713300     -0.853700      0.132090
H       3.258200      0.001200      0.412600      0.125981
CCCCC(F)
