20
-77.82989000
C       2.223100     -1.053700      0.058900     -0.436659
C       1.688900      0.180600      0.784400     -0.248123
C       0.864300      1.105900     -0.128100     -0.270692
C      -0.408200      0.468800     -0.715300     -0.261744
C      -1.429800      0.072800      0.361900     -0.309053
C      -2.744000     -0.397600     -0.259400     -0.054411
F      -3.358800      0.642800     -0.933300     -0.217789
H       1.395500     -1.749300     -0.191500      0.141973
H       2.934900     -1.591100      0.720300      0.138060
H       2.756500     -0.759300     -0.869900      0.143278
H       2.556900      0.759900      1.167300      0.130997
H       1.093700     -0.131400      1.667900      0.131934
H       1.508200      1.448100     -0.967600      0.136559
H       0.579600      2.011900      0.450100      0.135032
H      -0.872200      1.216100     -1.395400      0.144137
H      -0.146300     -0.415100     -1.334600      0.137148
H      -1.634200      0.938800      1.028500      0.154582
H      -1.023300     -0.757700      0.976900      0.146600
H      -2.560300     -1.236900     -0.963700      0.130678
H      -3.424500     -0.753500      0.542700      0.127494
CCCCCCF
