8
-174.75087000
C       0.784800     -0.013400     -0.115000     -0.510736
C      -0.719900      0.012300      0.105500      0.570851
F      -1.345500     -0.756100     -0.859000     -0.209926
F      -1.181300      1.313100      0.021600     -0.209846
F      -1.016600     -0.496600      1.356500     -0.209571
H       1.159600     -1.056700     -0.048400      0.189787
H       1.027500      0.394700     -1.119000      0.189719
H       1.291400      0.602700      0.657800      0.189723
CC(F)(F)F
