14
-122.85904000
C       0.436800     -0.599900      0.110100     -0.352509
C       1.885000     -0.182200      0.364000      0.286291
F       2.651100     -1.304600      0.620300     -0.226963
F       2.397700      0.468200     -0.744400     -0.224544
C      -0.471500      0.618200     -0.098100     -0.240400
C      -1.917700      0.192400     -0.333500     -0.437558
H       0.399900     -1.253900     -0.788600      0.171666
H       0.075000     -1.185200      0.983800      0.165002
H       1.940200      0.494600      1.243200      0.139263
H      -0.123000      1.202800     -0.977200      0.147815
H      -0.431600      1.273700      0.799100      0.135547
H      -2.550900      1.092500     -0.481700      0.145035
H      -2.301700     -0.371400      0.543300      0.144106
H      -1.989400     -0.445400     -1.240200      0.147251
C(C(F)(F))CC
