8
-113.25963000
C       0.732800     -0.088500     -0.033400      0.307778
F       1.332200      0.934700      0.677800     -0.225145
F       1.056500     -1.300200      0.548900     -0.225085
C      -0.776100      0.097400     -0.028700     -0.518056
H       1.108400     -0.074500     -1.078300      0.138337
H      -1.037900      1.068900     -0.498600      0.171348
H      -1.157000      0.084200      1.014400      0.179531
H      -1.258800     -0.722100     -0.602000      0.171291
C(F)(F)C
