20
-131.34821000
C       2.503200     -0.659700     -0.273900     -0.442816
C       1.235900     -0.013600     -0.839200     -0.267478
C       0.008800     -0.152300      0.097200     -0.179003
C       0.147600      0.761700      1.337400      0.277573
F      -0.007600      2.092900      0.990900     -0.225288
F      -0.787400      0.426300      2.299500     -0.230568
C      -1.283500      0.143100     -0.707600     -0.251392
C      -2.570200     -0.150200      0.065300     -0.437918
H       2.891600     -0.090000      0.594300      0.142035
H       2.304900     -1.709700      0.028700      0.146670
H       3.292700     -0.664200     -1.054900      0.148102
H       1.433900      1.058400     -1.058500      0.147989
H       1.022500     -0.515600     -1.808500      0.145307
H      -0.041000     -1.208400      0.445400      0.160853
H       1.143600      0.637900      1.805900      0.138232
H      -1.294000      1.201100     -1.049300      0.148154
H      -1.296800     -0.497200     -1.617000      0.136191
H      -2.524000     -1.154200      0.538000      0.145419
H      -3.432800     -0.129900     -0.633900      0.141388
H      -2.747500      0.623600      0.840100      0.156550
CCC(C(F)(F))CC
