24
-85.08692000
C      -3.513500      0.199200     -0.431200     -0.438074
C      -2.020600      0.493200     -0.312700     -0.241868
C      -1.331500     -0.521500      0.615000     -0.341121
C       0.189100     -0.300100      0.772200      0.163775
O       0.448900      0.937100      1.389700     -0.560811
C       0.958500     -0.460500     -0.564100     -0.336207
C       2.463500     -0.717100     -0.374900     -0.237470
C       3.224000      0.510400      0.124700     -0.441579
H      -3.674900     -0.814100     -0.857200      0.142165
H      -3.999500      0.260000      0.565900      0.144909
H      -3.987500      0.945700     -1.102900      0.141188
H      -1.573900      0.449900     -1.328400      0.132113
H      -1.897900      1.522000      0.087100      0.132661
H      -1.799400     -0.464600      1.622600      0.155496
H      -1.506300     -1.549700      0.228000      0.144082
H       0.544600     -1.094700      1.464200      0.139290
H       0.330000      1.652000      0.712300      0.311227
H       0.810300      0.428300     -1.215100      0.144002
H       0.542900     -1.335300     -1.110700      0.143455
H       2.624400     -1.565900      0.324500      0.133310
H       2.891500     -1.011100     -1.358000      0.129019
H       2.994400      1.396100     -0.505000      0.137691
H       2.967300      0.726900      1.181800      0.167034
H       4.315600      0.313700      0.072200      0.135714
CCCC(O)CCC
