14
-140.75153000
O       2.301700     -0.148700     -0.276200     -0.553365
C       1.039600      0.420000     -0.062500     -0.066485
C      -0.044600     -0.660400     -0.199000      0.089763
O       0.211500     -1.728800      0.678400     -0.555692
C      -1.454200     -0.096200      0.048400     -0.033890
O      -1.811100      0.808500     -0.962900     -0.529990
H       2.957800      0.588100     -0.168100      0.317871
H       0.866700      1.220900     -0.815500      0.117712
H       0.998600      0.870400      0.955000      0.130590
H      -0.009300     -1.058800     -1.236700      0.152061
H       0.176700     -1.371400      1.604700      0.334277
H      -2.182700     -0.934700      0.034200      0.168419
H      -1.516200      0.380700      1.054700      0.123036
H      -1.534500      1.710500     -0.654500      0.305693
OCC(O)CO
