21
-77.87338000
C       3.341300      0.577800     -0.397200     -0.440540
C       2.068300     -0.249200     -0.552300     -0.251598
C       0.861100      0.472900      0.057100     -0.269593
C      -0.415800     -0.361000     -0.100600     -0.269108
C      -1.623400      0.360800      0.508700     -0.328207
C      -2.899900     -0.469600      0.351800      0.003654
O      -3.984700      0.193300      0.941800     -0.548329
H       3.558200      0.754600      0.677800      0.143400
H       4.196800      0.030900     -0.846700      0.141295
H       3.232500      1.554500     -0.915300      0.142795
H       1.888700     -0.433000     -1.634100      0.133397
H       2.212900     -1.229400     -0.047700      0.134301
H       1.049500      0.656500      1.138000      0.138856
H       0.725000      1.453800     -0.449800      0.136952
H      -0.279400     -1.342000      0.406000      0.139137
H      -0.604200     -0.544500     -1.181600      0.136632
H      -1.440900      0.543800      1.590500      0.155240
H      -1.762800      1.341800      0.003600      0.140054
H      -3.106200     -0.663400     -0.725900      0.111818
H      -2.769500     -1.449600      0.858500      0.140900
H      -4.247800      0.919200      0.317500      0.308944
CCCCCCO
