21
-78.22838000
C      -2.462300      0.646200     -0.753400     -0.427817
C      -1.956900     -0.353700      0.288800     -0.326038
C      -0.437200     -0.612400      0.204800      0.164886
O      -0.101700     -1.093200     -1.071800     -0.568975
C       0.381600      0.658700      0.517400     -0.303579
C       1.835000      0.362700      0.925900     -0.242597
C       2.687500     -0.166100     -0.226700     -0.437139
H      -3.566900      0.729400     -0.678000      0.139269
H      -2.027100      1.651700     -0.576300      0.144451
H      -2.205700      0.307200     -1.779200      0.154571
H      -2.218600      0.015300      1.304400      0.145467
H      -2.492400     -1.316800      0.141600      0.137117
H      -0.190500     -1.383700      0.972000      0.112883
H      -0.406700     -2.037200     -1.113200      0.309310
H      -0.094100      1.197700      1.366100      0.137045
H       0.372600      1.346400     -0.356500      0.163570
H       2.293200      1.308200      1.289200      0.129135
H       1.856800     -0.362400      1.768300      0.129199
H       2.600500      0.497100     -1.113500      0.142991
H       2.380700     -1.196800     -0.499300      0.163296
H       3.752200     -0.198100      0.087000      0.132954
CCC(O)CCC
