19
-107.55360000
O      -1.604400      1.417700      1.130700     -0.551889
C      -2.212800      0.609900      0.161800      0.005259
C      -1.528900     -0.761100      0.105000     -0.290205
C      -0.202400     -0.753400     -0.673900     -0.264381
C       0.918900     -0.003000      0.059300     -0.292140
C       2.258500     -0.180500     -0.654600     -0.001674
O       3.250300      0.532000      0.030400     -0.549409
H      -2.079600      2.288400      1.101300      0.306795
H      -2.171400      1.103800     -0.835000      0.110916
H      -3.281900      0.462000      0.433200      0.109378
H      -2.218200     -1.466300     -0.408600      0.136050
H      -1.369900     -1.150900      1.134300      0.168853
H       0.109700     -1.810900     -0.820700      0.133494
H      -0.358800     -0.308200     -1.681000      0.131143
H       0.682700      1.081500      0.096800      0.166862
H       1.009900     -0.385700      1.099500      0.161174
H       2.178200      0.200800     -1.697600      0.106588
H       2.527400     -1.260500     -0.681600      0.107767
H       4.092600      0.384300     -0.473300      0.305420
OCCCCC(O)
