12
-62.55054000
C       1.290500      0.414700     -0.057700     -0.435449
C       0.283200     -0.696300      0.231000     -0.308651
C      -1.136000     -0.312800     -0.197100      0.004052
O      -1.631100      0.729000      0.601500     -0.549158
H       1.054200      1.319900      0.540500      0.139238
H       1.281800      0.673800     -1.137900      0.144348
H       2.310000      0.070200      0.215900      0.145879
H       0.294100     -0.932200      1.317300      0.153776
H       0.590800     -1.609600     -0.322800      0.143677
H      -1.796000     -1.196200     -0.065600      0.136895
H      -1.158300     -0.039500     -1.277800      0.114118
H      -1.383100      1.578900      0.152800      0.311274
CCCO
