9
-57.84477000
C       0.790100     -0.433500      0.225400     -0.495323
C      -0.644300     -0.080600     -0.148800      0.023827
O      -0.945900      1.227200      0.254900     -0.550410
H       0.932100     -0.334200      1.322500      0.161314
H       1.498500      0.243500     -0.297400      0.147354
H       1.007800     -1.480600     -0.072900      0.153231
H      -1.336100     -0.781300      0.364400      0.138707
H      -0.789700     -0.194300     -1.247100      0.111077
H      -0.512400      1.833800     -0.400900      0.310224
CCO
