6
-48.93720000
C      -0.357400      0.009100     -0.025600     -0.158616
O       0.909000     -0.542000     -0.245200     -0.525170
H      -0.558500      0.085600      1.065000      0.116547
H      -0.423400      1.016400     -0.491200      0.116350
H      -1.124700     -0.647500     -0.485000      0.146150
H       1.555000      0.078500      0.182000      0.304738
CO
