24
-82.49348000
C      -3.650200     -0.404700     -0.389600     -0.439473
C      -2.583000      0.114500      0.569600     -0.252968
C      -1.209500      0.174600     -0.109100     -0.269753
C      -0.138100      0.687700      0.864600     -0.272329
C       1.227700      0.890500      0.189600     -0.266309
C       1.913700     -0.436300     -0.168600     -0.325374
C       3.323900     -0.196400     -0.714200      0.002296
O       3.940700     -1.418100     -1.017100     -0.548683
H      -3.735000      0.265200     -1.271800      0.142240
H      -3.396200     -1.430900     -0.731000      0.142746
H      -4.632000     -0.435800      0.128200      0.141200
H      -2.535100     -0.559000      1.453100      0.134554
H      -2.875500      1.129700      0.916100      0.133261
H      -0.938900     -0.843700     -0.460900      0.136641
H      -1.265200      0.852300     -0.989400      0.136242
H      -0.035100     -0.015900      1.719800      0.139199
H      -0.466000      1.668500      1.273800      0.135512
H       1.108100      1.513900     -0.723700      0.137378
H       1.878300      1.451000      0.896500      0.136869
H       1.321200     -0.971100     -0.940700      0.140493
H       1.980900     -1.079600      0.736000      0.155178
H       3.935600      0.324400      0.053100      0.140105
H       3.283700      0.450600     -1.620500      0.111853
H       3.546200     -1.731300     -1.872800      0.309121
CCCCCCCO
