15
-69.80363000
C      -1.266500      0.955300      0.465200     -0.466473
C      -0.597300     -0.420700      0.421500      0.184029
O      -1.585100     -1.387900      0.177500     -0.573201
C       0.481100     -0.501900     -0.677800     -0.319441
C       1.705200      0.362300     -0.374200     -0.432314
H      -1.681200      1.220400     -0.530900      0.158492
H      -2.097400      0.943300      1.202400      0.161207
H      -0.543700      1.735300      0.782100      0.146773
H      -0.130500     -0.610000      1.416800      0.108640
H      -1.210900     -2.261500      0.465800      0.309730
H       0.821700     -1.556500     -0.768200      0.136708
H       0.051200     -0.203500     -1.658900      0.152973
H       2.491700      0.167200     -1.133400      0.144272
H       2.115100      0.117900      0.628800      0.142702
H       1.446500      1.440400     -0.416700      0.145902
CC(O)CC
