10
-95.46656000
O      -1.225100     -0.826600      0.791600     -0.537117
C      -0.580300     -0.403000     -0.379000     -0.058906
C       0.517200      0.610500     -0.052100     -0.056802
O       1.461200      0.050900      0.820300     -0.539699
H      -1.828600     -0.087700      1.066500      0.323432
H      -0.129700     -1.286000     -0.880000      0.144782
H      -1.313900      0.050000     -1.083900      0.127252
H       1.009700      0.948900     -0.991800      0.128978
H       0.064200      1.501100      0.432900      0.141070
H       2.025200     -0.558100      0.275500      0.327010
OCCO
