15
-74.73191000
C      -1.079700      0.961600      0.037000     -0.513042
C       0.047400     -0.062500      0.266400      0.374401
C      -0.423500     -1.451100     -0.188800     -0.476032
C       1.301100      0.340700     -0.531900     -0.512990
O       0.356700     -0.133100      1.637800     -0.579387
H      -1.363800      0.999200     -1.037000      0.153857
H      -0.753400      1.976900      0.348800      0.147297
H      -1.976700      0.687000      0.632600      0.161532
H      -1.321300     -1.762300      0.387700      0.160358
H       0.375100     -2.204700     -0.017700      0.160743
H      -0.680800     -1.446700     -1.270200      0.147541
H       2.124300     -0.382500     -0.347300      0.161670
H       1.083200      0.361000     -1.621700      0.153869
H       1.650500      1.350000     -0.225600      0.147269
H       0.661000      0.766400      1.929800      0.312915
CC(C)(C)O
