15
-68.38029000
C      -1.407300     -0.813700     -0.235800     -0.452909
C      -0.186600      0.099700     -0.400200     -0.116715
C      -0.285500      1.293400      0.559000     -0.452323
C       1.111200     -0.695400     -0.171800     -0.012734
O       2.232800      0.085700     -0.489800     -0.548260
H      -2.341300     -0.245500     -0.433700      0.147852
H      -1.450700     -1.228600      0.794300      0.145699
H      -1.357700     -1.654800     -0.959900      0.145294
H      -0.185100      0.487300     -1.443200      0.147611
H       0.551300      2.001800      0.383800      0.138951
H      -1.235500      1.843800      0.389300      0.148642
H      -0.253900      0.951300      1.615900      0.145356
H       1.164900     -1.066300      0.879000      0.113954
H       1.117400     -1.585600     -0.836700      0.139588
H       2.526000      0.526900      0.349700      0.309994
CC(C)CO
