17
-151.08768000
O       1.269800     -0.984300      1.221300     -0.558596
C       1.544600      0.004000      0.267000     -0.013743
C       0.502400     -0.020900     -0.864200      0.034678
O       0.398700     -1.329400     -1.366400     -0.562629
C      -0.899000      0.517200     -0.465400      0.137608
O      -0.843900      1.885000     -0.140600     -0.562401
C      -1.594800     -0.293800      0.640600     -0.487428
H       1.971100     -0.897900      1.918100      0.330146
H       1.581400      1.005300      0.747700      0.152742
H       2.547200     -0.191400     -0.175700      0.138063
H       0.894100      0.644300     -1.669900      0.125658
H      -0.002800     -1.261300     -2.272100      0.317927
H      -1.542300      0.431300     -1.368400      0.134333
H      -0.483500      1.971200      0.779600      0.344232
H      -2.643100      0.056000      0.751400      0.159197
H      -1.614000     -1.372800      0.379100      0.152870
H      -1.085900     -0.162700      1.617800      0.157344
OCC(O)C(O)C
