18
-191.34944000
O       2.952500      0.481400     -0.427800     -0.542314
C       1.923500     -0.087200      0.333900     -0.015080
C       0.569100      0.233900     -0.307700      0.055012
O       0.527700     -0.328600     -1.595700     -0.575441
C      -0.597300     -0.303100      0.561300      0.045215
O      -0.522000     -1.700600      0.706500     -0.542852
C      -1.977000      0.104000      0.016200     -0.049593
O      -2.102500      1.499500      0.012100     -0.559025
H       3.799500      0.241700      0.030700      0.327444
H       2.065400     -1.190200      0.387100      0.137932
H       1.955500      0.329400      1.366000      0.146266
H       0.490700      1.346000     -0.368600      0.134678
H      -0.028300      0.270700     -2.158900      0.347028
H      -0.503700      0.142600      1.576200      0.148535
H      -0.665000     -2.106100     -0.188300      0.332916
H      -2.118400     -0.293300     -1.013600      0.161736
H      -2.764800     -0.333800      0.669400      0.126257
H      -3.004700      1.693700     -0.352800      0.321286
OCC(O)C(O)CO
