13
-101.39569000
O      -2.367400      0.607600      0.407200     -0.540009
C      -1.286900     -0.217300      0.065800      0.007229
C       0.002400      0.309900      0.700700     -0.386094
C       1.193000     -0.593200      0.368800      0.007544
O       2.355100     -0.108100      0.984100     -0.539956
H      -2.292100      1.422000     -0.155900      0.309402
H      -1.494300     -1.241600      0.442900      0.144934
H      -1.178900     -0.272900     -1.041800      0.112538
H       0.203900      1.336500      0.324200      0.143336
H      -0.125100      0.358400      1.804200      0.174434
H       0.997200     -1.619200      0.747300      0.144998
H       1.337400     -0.654300     -0.734400      0.112314
H       2.655700      0.672100      0.448600      0.309329
OCCCO
