22
-242.59712000
O      -1.978700      1.666500      0.354100     -0.545728
C      -2.237400      0.393000     -0.169800     -0.049349
C      -1.302100     -0.651300      0.472700      0.038632
O      -1.926000     -1.911900      0.451200     -0.548046
C       0.100500     -0.745600     -0.195100      0.043679
O       0.813100     -1.791300      0.421100     -0.579210
C       0.918900      0.568000     -0.078100      0.081430
O       0.404900      1.525200     -0.968800     -0.577641
C       2.411100      0.355900     -0.391800     -0.036709
O       2.568700     -0.154900     -1.687400     -0.553164
H      -2.584400      2.290100     -0.124600      0.345029
H      -3.294000      0.125700      0.057800      0.157570
H      -2.113600      0.394800     -1.276100      0.115885
H      -1.162100     -0.380100      1.542600      0.168505
H      -2.063000     -2.160300     -0.501000      0.318842
H      -0.030200     -0.971600     -1.281300      0.138287
H       0.576900     -2.630000     -0.055100      0.351802
H       0.840500      0.941700      0.970100      0.156247
H       0.704100      2.414200     -0.642500      0.346180
H       2.865100     -0.338300      0.350100      0.139495
H       2.942100      1.330700     -0.309200      0.153850
H       3.545300     -0.270500     -1.820800      0.334414
OCC(O)C(O)C(O)CO
