18
-34.69915000
C       1.511500     -0.493800      0.113900     -0.240888
N       2.792800      0.095900     -0.254000      0.601727
O       3.460500      0.718800      0.596700     -0.384122
O       3.162600      0.153600     -1.577400     -0.384458
C       0.392500      0.544800     -0.034600     -0.301812
C      -0.972500      0.028700      0.466300     -0.049698
C      -1.551300     -1.060200     -0.444800     -0.465246
N      -1.919100      1.140900      0.553000      0.577266
O      -2.639900      1.268400      1.564000     -0.387134
O      -2.150000      1.942100     -0.542000     -0.383093
H       1.558800     -0.856300      1.164400      0.180749
H       1.316200     -1.365700     -0.545000      0.180962
H       0.669200      1.443100      0.560600      0.179892
H       0.315800      0.856100     -1.099700      0.189886
H      -0.835100     -0.404800      1.483100      0.176101
H      -0.925600     -1.975700     -0.409500      0.163173
H      -1.615100     -0.701200     -1.494200      0.176951
H      -2.571300     -1.334800     -0.101000      0.169742
C([N+](=O)[O-])CC(C)([N+](=O)[O-])
