18
-33.71981000
C       0.913500     -1.520700     -0.677900     -0.459159
C       0.671300     -0.310900      0.234700     -0.083001
N       1.864500      0.538200      0.236300      0.580175
O       2.210600      1.149200     -0.796400     -0.398330
O       2.685800      0.561100      1.339300     -0.362239
C      -0.574100      0.511700     -0.189100     -0.082890
N      -0.675700      1.725600      0.623400      0.580227
O      -0.869500      2.829800      0.074600     -0.360773
O      -0.713600      1.640800      1.996500     -0.399520
C      -1.875900     -0.289300     -0.057300     -0.459086
H       0.962100     -1.206700     -1.742400      0.168046
H       0.107700     -2.273500     -0.554600      0.169074
H       1.873700     -2.009800     -0.407700      0.178310
H       0.509000     -0.693800      1.267400      0.207147
H      -0.460400      0.801800     -1.258700      0.206982
H      -1.903700     -1.118300     -0.794300      0.169031
H      -1.979000     -0.705800      0.967500      0.168301
H      -2.746100      0.370400     -0.261500      0.177705
CC([N+](=O)[O-])C([N+](=O)[O-])C
