13
-27.64614000
C       1.247800      0.331600      0.620900     -0.444067
C       0.692500     -0.425600     -0.583800     -0.252033
C      -0.817700     -0.664100     -0.472800     -0.241976
N      -1.553600      0.594200     -0.532000      0.609901
O      -1.712100      1.176800     -1.624300     -0.402135
O      -1.966800      1.205600      0.628600     -0.399655
H       0.813500      1.352100      0.673600      0.161080
H       2.350000      0.424800      0.523400      0.150760
H       1.020100     -0.215300      1.560500      0.150408
H       0.917000      0.141300     -1.513400      0.161999
H       1.204900     -1.409500     -0.652100      0.151534
H      -1.143800     -1.317600     -1.310900      0.174541
H      -1.051800     -1.194400      0.476000      0.179644
CCC[N+](=O)[O-]
