16
-33.11505000
C       1.680900     -0.411200     -0.322500     -0.439674
C       0.802000      0.151700      0.796800     -0.269412
C      -0.669000      0.386400      0.391600     -0.051154
N      -0.765700      1.330300     -0.724900      0.584336
O      -0.708100      2.556900     -0.501600     -0.411618
O      -0.738200      0.886500     -2.027700     -0.392481
C      -1.413700     -0.919500      0.081300     -0.459426
H       2.719800     -0.526300      0.052200      0.149036
H       1.321600     -1.409300     -0.646300      0.149618
H       1.703600      0.278800     -1.191100      0.162256
H       0.837800     -0.542800      1.664300      0.152159
H       1.237900      1.117700      1.132600      0.158468
H      -1.179100      0.837900      1.272300      0.168674
H      -1.343100     -1.615000      0.944600      0.160004
H      -2.487100     -0.701800     -0.103500      0.161443
H      -0.999800     -1.420300     -0.818100      0.177772
CCC([N+](=O)[O-])C
