16
-35.60947000
C       1.483600     -0.102300     -0.087800     -0.476609
C      -0.036400      0.047700      0.088200      0.161306
C      -0.595200      0.975900     -1.010400     -0.472894
N      -0.311800      0.613600      1.419300      0.556844
O      -0.224700      1.845500      1.607600     -0.399719
O      -0.361200     -0.212000      2.520000     -0.399250
C      -0.709100     -1.333200     -0.044500     -0.472747
H       1.983300      0.886600     -0.001300      0.168666
H       1.724100     -0.533100     -1.083900      0.164908
H       1.900200     -0.770900      0.696100      0.168207
H      -1.686400      1.129800     -0.866600      0.164686
H      -0.095100      1.967800     -0.982900      0.175444
H      -0.430500      0.537100     -2.018400      0.160475
H      -0.289900     -2.050900      0.693100      0.175354
H      -0.547900     -1.754100     -1.060700      0.160308
H      -1.802900     -1.247800      0.132300      0.165020
CC(C)([N+](=O)[O-])C
