15
-28.31904000
C       0.917100      0.212200     -0.570600     -0.282226
N       1.940900      0.620400      0.384900      0.604131
O       2.718900     -0.227800      0.867500     -0.395097
O       1.937900      1.900000      0.889000     -0.363280
C      -0.293000     -0.394800      0.158000     -0.064584
N      -0.900800      0.589000      1.055400      0.577909
O      -1.444100      1.616700      0.598900     -0.397180
O      -0.773800      0.442300      2.417000     -0.359851
C      -1.331800     -0.911000     -0.842400     -0.464302
H       1.349500     -0.537700     -1.269200      0.194881
H       0.601200      1.091700     -1.173500      0.219108
H       0.057000     -1.265000      0.757200      0.211215
H      -2.200900     -1.337100     -0.297600      0.177267
H      -0.889800     -1.709900     -1.475200      0.169600
H      -1.688300     -0.088900     -1.499500      0.172406
C([N+](=O)[O-])C([N+](=O)[O-])C
