22
-42.41925000
C      -2.915800      0.648300      0.252700     -0.438144
C      -2.288600     -0.220200     -0.837500     -0.249124
C      -1.021400     -0.947600     -0.362500     -0.269956
C       0.163000      0.007000     -0.150500     -0.273072
C       1.439900     -0.772100      0.194800     -0.278053
C       2.621800      0.158600      0.491100     -0.242030
N       3.018800      0.899800     -0.701100      0.609181
O       3.665000      0.332600     -1.605700     -0.399840
O       2.579500      2.189700     -0.888200     -0.401187
H      -2.257500      1.506900      0.499000      0.143838
H      -3.885700      1.050100     -0.108800      0.142001
H      -3.101800      0.048600      1.169000      0.140422
H      -2.060200      0.405800     -1.727400      0.140300
H      -3.035600     -0.983000     -1.146900      0.133074
H      -0.745200     -1.695800     -1.137700      0.136265
H      -1.235700     -1.500800      0.578300      0.135244
H       0.328700      0.595400     -1.078800      0.154049
H      -0.066800      0.708100      0.680000      0.143967
H       1.253500     -1.397100      1.095500      0.154010
H       1.706600     -1.451800     -0.644200      0.163734
H       3.482100     -0.449800      0.845700      0.175884
H       2.355200      0.867200      1.305400      0.179436
CCCCCC[N+](=O)[O-]
