17
-25.42149000
C       1.480500      0.318000      0.285300     -0.287286
N       1.966000      0.794500     -1.005800      0.611901
O       2.370300     -0.016100     -1.864500     -0.398888
O       1.888500      2.131500     -1.318400     -0.347356
C      -0.058500      0.306100      0.327600     -0.095042
N      -0.515400      0.042300      1.693300      0.580902
O      -0.166400     -0.997100      2.291300     -0.361094
O      -1.423200      0.888300      2.286600     -0.363970
C      -0.646900     -0.736100     -0.641400     -0.280535
N      -2.104900     -0.704000     -0.608100      0.620275
O      -2.725200      0.178700     -1.235600     -0.393412
O      -2.790600     -1.534100      0.247700     -0.360572
H       1.880800     -0.699900      0.490500      0.196699
H       1.863300      0.994700      1.079900      0.219479
H      -0.418800      1.313700      0.020300      0.231450
H      -0.292500     -1.754600     -0.370200      0.210792
H      -0.306800     -0.525800     -1.678400      0.216659
C([N+](=O)[O-])C([N+](=O)[O-])C([N+](=O)[O-])
