20
-35.02755000
C      -1.826500      0.659000      0.181700     -0.285381
N      -1.529000      2.082100      0.307200      0.610151
O      -1.273600      2.573600      1.425700     -0.346161
O      -1.434000      2.868600     -0.817100     -0.399149
C      -0.549100     -0.189800      0.314000     -0.090300
N      -0.911200     -1.606500      0.390800      0.583925
O      -1.443800     -2.180500     -0.582200     -0.388126
O      -0.771300     -2.284700      1.579000     -0.377945
C       0.424200      0.061900     -0.859900     -0.292633
C       1.725700     -0.745300     -0.745600     -0.248490
N       2.491100     -0.345800      0.430400      0.608857
O       3.119300      0.732600      0.433100     -0.365243
O       2.428900     -1.097200      1.580700     -0.420623
H      -2.317600      0.464100     -0.796900      0.191333
H      -2.545100      0.370000      0.979900      0.218797
H      -0.044700      0.101600      1.262000      0.227363
H       0.685100      1.141100     -0.907000      0.200985
H      -0.073500     -0.201400     -1.818700      0.177553
H       2.339500     -0.570100     -1.655800      0.189860
H       1.505400     -1.833500     -0.701400      0.205225
C([N+](=O)[O-])C([N+](=O)[O-])CC([N+](=O)[O-])
