7
-17.18882000
C      -0.648300      0.006500      0.015100     -0.407603
N       0.800500     -0.045600     -0.101500      0.634092
O       1.389500     -1.142400     -0.018600     -0.397683
O       1.529300      1.118100     -0.028300     -0.397042
H      -1.031900      0.933800     -0.460300      0.189362
H      -0.935600     -0.000500      1.087300      0.189410
H      -1.103600     -0.869900     -0.493500      0.189464
C[N+](=O)[O-]
