13
-29.14292000
C       1.257600     -0.408700      0.496600     -0.463871
C       0.095500     -0.018000     -0.420300     -0.026048
N      -0.871600     -1.111600     -0.508700      0.578349
O      -1.340800     -1.438400     -1.618100     -0.404657
O      -1.408500     -1.658200      0.634700     -0.392828
C      -0.595600      1.252100      0.079700     -0.464137
H       0.901000     -0.582400      1.534500      0.176088
H       1.737200     -1.338000      0.122000      0.162767
H       2.021100      0.398100      0.510600      0.162193
H       0.513200      0.187300     -1.431800      0.171068
H       0.126900      2.095500      0.109000      0.163900
H      -1.010900      1.097200      1.098600      0.172637
H      -1.425000      1.525100     -0.606800      0.164537
CC([N+](=O)[O-])C
