21
-37.16172000
C       2.685300     -0.535100      0.093400     -0.442248
C       1.381400     -0.251900     -0.652000     -0.275024
C       0.158400     -0.278500      0.291700     -0.108605
N       0.242700      0.785100      1.298900      0.583763
O       0.545600      1.953200      0.977500     -0.353298
O      -0.085300      0.512700      2.606600     -0.402556
C      -1.175800     -0.209500     -0.498000     -0.087529
N      -1.310900      1.053600     -1.230300      0.580005
O      -0.928000      1.129300     -2.416000     -0.404424
O      -1.793800      2.182800     -0.608700     -0.345713
C      -2.389100     -0.435100      0.414000     -0.466642
H       3.530800     -0.536900     -0.626400      0.158115
H       2.639800     -1.528500      0.588200      0.143999
H       2.876300      0.247100      0.858000      0.160333
H       1.461600      0.734800     -1.156900      0.186559
H       1.258200     -1.027200     -1.439400      0.162764
H       0.176600     -1.260300      0.817500      0.189597
H      -1.179900     -1.046100     -1.233500      0.185954
H      -3.320700     -0.425700     -0.190900      0.173119
H      -2.311500     -1.421600      0.918600      0.169781
H      -2.461700      0.357900      1.187700      0.192049
CCC([N+](=O)[O-])C([N+](=O)[O-])C
