10
-22.65574000
C      -1.063400     -0.350800      0.197300     -0.444674
C       0.067500      0.629800     -0.086300     -0.217284
N       1.331800     -0.082500     -0.220700      0.603935
O       1.659700     -0.569500     -1.322100     -0.397418
O       2.058000     -0.402500      0.902500     -0.397625
H      -1.158300     -1.076800     -0.638000      0.168133
H      -2.020300      0.202800      0.301400      0.163362
H      -0.863700     -0.902200      1.140500      0.168450
H       0.140200      1.361600      0.746800      0.176559
H      -0.151400      1.190000     -1.021400      0.176562
CC[N+](=O)[O-]
