14
-131.89295000
C      -1.941400      0.076100      0.038800     -0.425790
C      -0.502700      0.561100      0.210000     -0.323244
C       0.518900     -0.542800     -0.105500      0.441687
F       0.360800     -0.968600     -1.414000     -0.233482
F       0.323600     -1.619600      0.743400     -0.233548
C       1.944800     -0.025900      0.075000     -0.520812
H      -2.151100     -0.770600      0.726300      0.156601
H      -2.121200     -0.247200     -1.008400      0.156617
H      -2.641900      0.904200      0.276600      0.145014
H      -0.366200      0.907900      1.257700      0.158689
H      -0.336400      1.428100     -0.466400      0.158691
H       2.669300     -0.835200     -0.156600      0.178936
H       2.106800      0.304800      1.123300      0.170298
H       2.136700      0.827700     -0.609800      0.170342
CCC(F)(F)C
