14
-123.49245000
C       1.428000     -0.254100      0.213200     -0.449695
C       0.060700      0.122300     -0.372000     -0.135613
C      -0.600100      1.237500      0.454900      0.272376
F       0.211300      2.358300      0.480500     -0.227362
F      -1.816700      1.589500     -0.103000     -0.226992
C      -0.843500     -1.115300     -0.440400     -0.449336
H       2.105700      0.625900      0.210100      0.157205
H       1.320600     -0.621400      1.256600      0.147508
H       1.901300     -1.050600     -0.399900      0.153100
H       0.216500      0.497300     -1.407800      0.161832
H      -0.770500      0.895100      1.498400      0.139283
H      -1.038100     -1.515800      0.577900      0.147539
H      -0.361800     -1.908600     -1.051100      0.152994
H      -1.813400     -0.860100     -0.917500      0.157160
CC(C(F)F)C
