20
-78.45198000
C      -2.582400     -0.312300      0.821600     -0.436978
C      -2.041500      0.533400     -0.330900     -0.249837
C      -0.591000      0.987300     -0.105500     -0.272704
C       0.413300     -0.169800     -0.213300     -0.262120
C       1.854800      0.344100     -0.106200     -0.312825
C       2.865600     -0.798800     -0.184900     -0.052491
F       2.798600     -1.416900     -1.421000     -0.217040
H      -2.462300      0.223400      1.787200      0.141145
H      -2.059000     -1.289300      0.872200      0.142730
H      -3.663200     -0.508300      0.659100      0.139779
H      -2.121000     -0.037400     -1.281500      0.136981
H      -2.680600      1.437700     -0.428200      0.131813
H      -0.500100      1.476700      0.889200      0.135325
H      -0.346400      1.748300     -0.878800      0.134079
H       0.230600     -0.900000      0.603700      0.137243
H       0.277400     -0.686000     -1.188900      0.148028
H       2.060300      1.065100     -0.927400      0.153807
H       1.988800      0.871700      0.863400      0.144755
H       3.890200     -0.395100     -0.042900      0.127514
H       2.667900     -1.546100      0.612900      0.130797
CCCCCCF
