23
-83.54241000
C       3.280300      0.474800     -0.305200     -0.437296
C       2.590500     -0.872700     -0.094300     -0.249900
C       1.230700     -0.741000      0.608700     -0.270475
C       0.160600     -0.104000     -0.290400     -0.271270
C      -1.208000     -0.102600      0.401400     -0.267855
C      -2.275500      0.541800     -0.491900     -0.309609
C      -3.641100      0.563700      0.192600     -0.052389
F      -4.092200     -0.726300      0.409300     -0.217499
H       2.721100      1.092900     -1.037600      0.141410
H       4.302400      0.306900     -0.705200      0.139043
H       3.363600      1.024100      0.656600      0.142160
H       3.251200     -1.506400      0.536200      0.131917
H       2.467800     -1.385900     -1.072900      0.134797
H       1.345300     -0.146000      1.541400      0.136653
H       0.895400     -1.760900      0.898900      0.135330
H       0.445600      0.943900     -0.525100      0.135996
H       0.089500     -0.675000     -1.242400      0.137687
H      -1.503200     -1.149700      0.632700      0.148463
H      -1.136100      0.463700      1.356200      0.135838
H      -1.979500      1.587300     -0.728300      0.144784
H      -2.358300     -0.022000     -1.446800      0.154439
H      -3.579200      1.101200      1.162800      0.130909
H      -4.370500      1.092300     -0.456700      0.126868
CCCCCCCF
