17
-117.16857000
C      -2.394300      0.328900      0.275200     -0.438993
C      -0.907600      0.610500      0.075400     -0.244161
C      -0.151100     -0.666000     -0.320300     -0.321083
C       1.312700     -0.400400     -0.714100      0.066947
F       1.836300     -1.560200     -1.259800     -0.223944
C       2.187300      0.016700      0.473000     -0.106541
F       1.944700      1.333100      0.820700     -0.201975
H      -2.539100     -0.430300      1.073200      0.143767
H      -2.912700      1.263700      0.575900      0.144425
H      -2.848400     -0.039800     -0.669200      0.144070
H      -0.500100      1.013400      1.026200      0.144110
H      -0.792200      1.380900     -0.717800      0.139292
H      -0.190100     -1.400600      0.513900      0.150800
H      -0.661200     -1.125700     -1.195500      0.159223
H       1.354600      0.388600     -1.496300      0.149039
H       3.257700     -0.071900      0.190300      0.150632
H       2.003500     -0.640700      1.349300      0.144392
CCCC(F)C(F)
