8
-59.26009000
C      -0.766100      0.040000     -0.081500     -0.478071
C       0.737600     -0.099400      0.088600     -0.031156
F       1.342000      1.135700     -0.056500     -0.218504
H      -0.996900      0.439400     -1.091700      0.159609
H      -1.250800     -0.952200      0.035100      0.152630
H      -1.170700      0.733300      0.685900      0.159565
H       0.965600     -0.501600      1.098200      0.127968
H       1.139300     -0.795200     -0.677900      0.127959
CCF
