11
-108.46908000
C      -1.292700      0.185200     -0.017900     -0.492196
C       0.018200     -0.596700     -0.009200      0.086542
F       0.106900     -1.355600     -1.163400     -0.212841
C       1.219600      0.342300      0.077300     -0.109022
F       2.388600     -0.396300      0.103200     -0.195397
H      -1.391600      0.782400      0.913600      0.157227
H      -2.147900     -0.520800     -0.077400      0.167156
H      -1.331500      0.866200     -0.894900      0.162802
H       0.025800     -1.280200      0.867300      0.145897
H       1.241900      1.020600     -0.802300      0.149694
H       1.162600      0.952900      1.003700      0.140137
CC(F)C(F)
