11
-127.81899000
C       1.253600      0.233900      0.170100     -0.515814
C      -0.002000     -0.587400     -0.113800      0.464372
F      -0.114400     -1.590700      0.832900     -0.236217
F       0.104800     -1.165400     -1.366700     -0.236084
C      -1.251700      0.288900     -0.068800     -0.515689
H       1.194700      0.694100      1.179700      0.170931
H       1.370900      1.036200     -0.589500      0.170931
H       2.147800     -0.423500      0.132100      0.177948
H      -1.364700      0.750300      0.935500      0.170830
H      -1.188500      1.092400     -0.833600      0.170844
H      -2.150400     -0.329100     -0.277900      0.177947
CC(F)(F)C
