32
-98.41416000
C       4.402400      1.360300     -0.290100     -0.441128
C       3.351600      0.323200     -0.676300     -0.248661
C       2.878400     -0.468300      0.551400     -0.268677
C       1.957100     -1.646600      0.187100     -0.273802
C       0.643500     -1.252800     -0.512700     -0.269346
C      -0.253000     -0.357400      0.355400     -0.271320
C      -1.621200     -0.144700     -0.304000     -0.271830
C      -2.514100      0.757800      0.560600     -0.268028
C      -3.848700      1.096600     -0.121400     -0.312970
C      -4.795100     -0.102200     -0.198300     -0.048282
F      -6.020900      0.307900     -0.689500     -0.222041
H       4.715300      1.926500     -1.192700      0.140558
H       3.984400      2.075000      0.450600      0.142111
H       5.295900      0.862600      0.143400      0.141798
H       2.493200      0.854100     -1.139600      0.135222
H       3.789500     -0.370000     -1.427100      0.133673
H       3.767100     -0.886900      1.072800      0.133698
H       2.371500      0.210200      1.269800      0.136053
H       2.513800     -2.345800     -0.474300      0.134895
H       1.714500     -2.206100      1.116800      0.134015
H       0.094800     -2.191500     -0.746700      0.133502
H       0.857300     -0.752900     -1.481100      0.137619
H      -0.395200     -0.829700      1.352300      0.136218
H       0.233800      0.631500      0.494200      0.138972
H      -2.111400     -1.132000     -0.441900      0.134750
H      -1.477400      0.323900     -1.302600      0.139538
H      -1.978000      1.712500      0.755800      0.141524
H      -2.705500      0.272500      1.542900      0.137988
H      -4.347100      1.898000      0.466200      0.150478
H      -3.665400      1.494200     -1.143400      0.153229
H      -4.387200     -0.878700     -0.877600      0.130708
H      -4.944200     -0.541200      0.811100      0.129534
CCCCCCCCCCF
