11
-117.97862000
C      -0.059400     -0.493700     -0.368600     -0.329220
C       1.223700     -0.039100      0.325900      0.288846
F       2.259000     -0.890400     -0.014400     -0.229282
F       1.058100     -0.059400      1.699500     -0.224067
C      -1.218700      0.459800     -0.090200     -0.431536
H       0.115400     -0.538200     -1.465400      0.162117
H      -0.329400     -1.513000     -0.017000      0.169403
H       1.489300      0.990600      0.004600      0.139633
H      -2.126100      0.105900     -0.623400      0.151472
H      -0.972700      1.482000     -0.448900      0.145611
H      -1.439400      0.495400      0.997800      0.157022
C(C(F)F)C
