14
-122.85083000
C       0.516800      0.042900      0.542100     -0.352459
C       1.904400     -0.303300      0.002900      0.286281
F       2.284800      0.610800     -0.963800     -0.224511
F       2.822500     -0.271900      1.036500     -0.227115
C      -0.553100     -0.059100     -0.552000     -0.240293
C      -1.937100      0.271100     -0.000600     -0.437599
H       0.534900      1.075400      0.954700      0.171775
H       0.268600     -0.659600      1.367800      0.164853
H       1.900800     -1.322600     -0.438900      0.139310
H      -0.568500     -1.090600     -0.966800      0.135558
H      -0.318200      0.648700     -1.376500      0.147918
H      -2.210100     -0.439600      0.808300      0.144081
H      -1.956000      1.307400      0.399300      0.147224
H      -2.689900      0.190300     -0.813000      0.144978
C(C(F)(F))CC
