14
-68.30165000
C      -1.409200      0.012100     -0.860200     -0.439441
C      -0.569300      0.822500      0.126600     -0.243377
C       0.375000     -0.054700      0.964100     -0.308447
C       1.524500     -0.651600      0.149200     -0.049602
F       2.278000      0.351700     -0.433900     -0.219255
H      -0.769100     -0.428500     -1.652200      0.142981
H      -2.150900      0.679400     -1.347700      0.142461
H      -1.956400     -0.797500     -0.332200      0.141025
H       0.008400      1.596500     -0.423300      0.146382
H      -1.260400      1.351000      0.818500      0.133484
H       0.808800      0.568900      1.775700      0.150589
H      -0.200100     -0.875100      1.446000      0.144987
H       2.180700     -1.242500      0.822500      0.125403
H       1.139900     -1.332400     -0.637800      0.132808
CCCCF
