29
-94.09529000
C       4.414400      1.199700     -0.304100     -0.439293
C       3.620700      0.007100      0.221600     -0.252276
C       2.183400      0.019000     -0.311900     -0.269264
C       1.386900     -1.177500      0.229600     -0.275066
C      -0.018000     -1.281200     -0.384900     -0.272743
C      -0.964500     -0.177900      0.111500     -0.266197
C      -2.387100     -0.396300     -0.417600     -0.269955
C      -3.330900      0.710300      0.067400     -0.313104
C      -4.748400      0.494900     -0.457000     -0.052133
F      -5.571200      1.508700     -0.001600     -0.219031
H       3.941200      2.151200      0.019500      0.142820
H       5.449100      1.163500      0.097100      0.140393
H       4.462500      1.172300     -1.413600      0.142306
H       4.130400     -0.929700     -0.092900      0.133046
H       3.608100      0.045100      1.332900      0.133752
H       2.204800     -0.022400     -1.423300      0.136527
H       1.693800      0.966400     -0.000800      0.137241
H       1.309900     -1.111400      1.337200      0.137535
H       1.936200     -2.113400     -0.014000      0.134874
H       0.052600     -1.249000     -1.494400      0.137055
H      -0.441700     -2.270300     -0.103600      0.134348
H      -0.983100     -0.178600      1.223700      0.138954
H      -0.600800      0.812000     -0.237300      0.139332
H      -2.368600     -0.402700     -1.530000      0.137890
H      -2.764500     -1.381400     -0.064600      0.137203
H      -2.961900      1.698000     -0.286000      0.153464
H      -3.355100      0.720100      1.179200      0.153006
H      -5.146300     -0.478400     -0.098500      0.129603
H      -4.751600      0.501900     -1.567800      0.129712
CCCCCCCCCF
