8
-97.86132000
C       0.759000     -0.012000      0.068500     -0.095168
F       1.248800      0.899200     -0.849400     -0.194501
C      -0.755800     -0.090900     -0.037700     -0.095230
F      -1.312400      1.144800      0.237600     -0.194386
H       1.049400      0.306800      1.091900      0.150809
H       1.201100     -1.009500     -0.137600      0.138780
H      -1.046400     -0.403500     -1.062900      0.150802
H      -1.143700     -0.834900      0.689700      0.138895
C(F)C(F)
