18
-76.15398000
C       2.482000      0.612800      0.064900     -0.428464
C       1.341000     -0.377000     -0.162100     -0.319907
C      -0.038400      0.288800      0.011900      0.160825
O      -0.184700      0.802100      1.314000     -0.556402
C      -1.170900     -0.704400     -0.315400     -0.319864
C      -2.545600     -0.042400     -0.241800     -0.428516
H       2.461000      0.998800      1.106000      0.157841
H       3.454100      0.102700     -0.101800      0.138635
H       2.402000      1.463900     -0.644400      0.142902
H       1.429200     -0.782400     -1.193800      0.142299
H       1.447500     -1.224500      0.549900      0.138795
H      -0.105200      1.137300     -0.704500      0.142270
H      -0.123700      0.038500      1.946100      0.309113
H      -1.141800     -1.561900      0.391900      0.138689
H      -1.028700     -1.102700     -1.343800      0.142275
H      -3.328000     -0.781200     -0.515600      0.138599
H      -2.601300      0.811800     -0.949700      0.142800
H      -2.748500      0.319800      0.788200      0.158110
CCC(O)CC
