18
-75.75346000
C       1.658200     -0.506800      0.465800     -0.503983
C       1.152400      0.374800     -0.682900      0.186586
O       1.992600      1.491000     -0.837800     -0.569810
C      -0.309100      0.836100     -0.487200     -0.340682
C      -1.334700     -0.316400     -0.533400     -0.240361
C      -1.804900     -0.735000      0.859600     -0.439643
H       1.493000     -0.008700      1.444900      0.147833
H       2.745600     -0.696100      0.341700      0.160198
H       1.140800     -1.488500      0.458000      0.155778
H       1.213600     -0.217200     -1.622200      0.137248
H       1.948400      2.018500      0.002900      0.312494
H      -0.403900      1.416900      0.457100      0.144349
H      -0.549300      1.540200     -1.314200      0.152866
H      -0.921900     -1.199600     -1.067400      0.135821
H      -2.227800      0.019700     -1.104400      0.134766
H      -0.953600     -1.073900      1.483600      0.143555
H      -2.308900      0.115700      1.365800      0.142572
H      -2.530600     -1.570700      0.770000      0.140413
CC(O)CCC
