15
-65.23187000
C      -0.540700      1.444300     -0.163500     -0.445503
C      -0.362900      0.033800      0.412500     -0.074978
C      -1.094800     -1.001800     -0.450300     -0.445848
C       1.125100     -0.321500      0.568700     -0.019213
O       1.769500     -0.321500     -0.676600     -0.542451
H      -0.027400      2.188900      0.481500      0.138070
H      -1.619500      1.706900     -0.202500      0.139331
H      -0.121400      1.508300     -1.190500      0.163243
H      -0.823100      0.019300      1.425300      0.126684
H      -2.179400     -0.765000     -0.492300      0.139535
H      -0.979800     -2.015900     -0.011600      0.137970
H      -0.691900     -1.010300     -1.485800      0.163095
H       1.612500      0.418200      1.243100      0.108678
H       1.217300     -1.326700      1.038500      0.108736
H       2.716500     -0.557100     -0.496400      0.302653
CC(C)CO
