24
-85.96680000
C       3.494100      0.033500      0.412100     -0.430096
C       2.107400      0.426400     -0.094900     -0.315811
C       1.102600     -0.741400      0.019300      0.161231
O       1.569000     -1.861500     -0.692500     -0.563366
C      -0.306900     -0.355500     -0.483300     -0.341240
C      -1.059900      0.560100      0.498600     -0.262987
C      -2.460400      0.940300     -0.007700     -0.247850
C      -3.452200     -0.220900      0.061000     -0.436638
H       3.437600     -0.301800      1.469600      0.143500
H       3.920800     -0.781600     -0.209800      0.156327
H       4.172600      0.910600      0.354100      0.138328
H       1.759000      1.290400      0.507800      0.144604
H       2.189200      0.755900     -1.153700      0.138514
H       1.025100     -1.036600      1.089000      0.141204
H       1.633800     -1.602200     -1.649400      0.311029
H      -0.888500     -1.292300     -0.615200      0.160407
H      -0.230800      0.137400     -1.477500      0.139972
H      -0.489700      1.502200      0.634600      0.131210
H      -1.140700      0.068500      1.492900      0.140057
H      -2.850300      1.765600      0.627000      0.131266
H      -2.401200      1.319600     -1.051000      0.134154
H      -4.467900      0.147000     -0.196000      0.138111
H      -3.481300     -0.648100      1.085900      0.143119
H      -3.181300     -1.015500     -0.664200      0.144955
CCC(O)CCCC
