12
-62.17977000
C      -1.251500      0.060600      0.679900     -0.429671
C      -0.256200     -0.588000     -0.279700     -0.305258
C       1.157000     -0.022800     -0.104200      0.002495
O       1.193000      1.343300     -0.419200     -0.548194
H      -1.328600      1.150700      0.481500      0.155219
H      -2.254000     -0.395500      0.538200      0.139072
H      -0.934200     -0.100100      1.732200      0.143991
H      -0.233100     -1.682500     -0.087600      0.142591
H      -0.595100     -0.429500     -1.326400      0.138036
H       1.866300     -0.584700     -0.753400      0.110575
H       1.487200     -0.159200      0.947700      0.141836
H       1.149300      1.407700     -1.409000      0.309309
CCCO
