12
-67.15360000
C       1.142900     -0.182500     -0.633800     -0.506089
C       0.158500      0.328100      0.423000      0.204156
O      -0.189900      1.665900      0.170000     -0.565210
C      -1.093400     -0.552300      0.490800     -0.506349
H       2.040200      0.471500     -0.658100      0.160186
H       1.467100     -1.216200     -0.387600      0.152870
H       0.672400     -0.182200     -1.640400      0.148847
H       0.663000      0.286400      1.412500      0.136948
H      -0.640100      1.697200     -0.714900      0.312474
H      -0.815100     -1.593500      0.760100      0.153027
H      -1.619700     -0.561200     -0.487700      0.148902
H      -1.785900     -0.161100      1.266000      0.160238
CC(O)C
