24
-84.58378000
C      -3.248800      0.174000     -0.258800     -0.440422
C      -2.309700      0.011800     -1.453700     -0.244020
C      -0.892400      0.542400     -1.177200     -0.344016
C      -0.119500     -0.272000     -0.119800      0.160079
O       0.006000     -1.607200     -0.542100     -0.568537
C       1.282400      0.326200      0.086300     -0.305329
C       2.043100     -0.387500      1.212400     -0.242398
C       3.421700      0.231500      1.424300     -0.439034
H      -3.245100      1.225200      0.099900      0.144742
H      -4.282900     -0.091100     -0.564300      0.141772
H      -2.951600     -0.502100      0.569300      0.144047
H      -2.272900     -1.056000     -1.758000      0.128629
H      -2.733700      0.583300     -2.307600      0.136921
H      -0.324300      0.522200     -2.133300      0.153492
H      -0.960700      1.604900     -0.855100      0.148353
H      -0.658100     -0.211300      0.855100      0.114758
H      -0.740300     -2.115700     -0.129800      0.311035
H       1.862400      0.247000     -0.860100      0.156840
H       1.186200      1.404000      0.345800      0.138417
H       1.466900     -0.313000      2.160400      0.128680
H       2.169900     -1.462900      0.961400      0.154014
H       4.028000      0.149400      0.497100      0.143581
H       3.325200      1.301700      1.706300      0.138651
H       3.948400     -0.304700      2.241600      0.139745
CCCC(O)CCC
