15
-67.66493000
C      -2.032800      0.696900      0.275200     -0.437923
C      -0.882900     -0.230800     -0.106400     -0.244954
C       0.411700      0.168600      0.610600     -0.328143
C       1.564500     -0.762400      0.226300      0.001508
O       2.730200     -0.399900      0.915000     -0.547950
H      -2.955300      0.384100     -0.257900      0.141772
H      -1.795200      1.743800     -0.010600      0.143094
H      -2.221000      0.648600      1.369000      0.144939
H      -0.732200     -0.182600     -1.207000      0.133968
H      -1.156600     -1.273400      0.166500      0.136452
H       0.680000      1.212800      0.337200      0.140227
H       0.257900      0.120400      1.711100      0.155298
H       1.304800     -1.807100      0.500900      0.140957
H       1.740100     -0.728500     -0.873500      0.111878
H       3.086900      0.409400      0.463600      0.308877
CCCCO
