21
-79.68367000
C      -2.980300      0.065200     -0.204600     -0.512841
C      -1.496900     -0.312700     -0.252300      0.186007
O      -1.260200     -1.360200      0.651700     -0.574075
C      -0.620000      0.900400      0.115900     -0.308363
C       0.856600      0.734700     -0.285700     -0.264415
C       1.604300     -0.294000      0.574700     -0.249186
C       3.102600     -0.267700      0.285200     -0.442339
H      -3.259100      0.413100      0.813200      0.162405
H      -3.198000      0.871300     -0.937500      0.155102
H      -3.603700     -0.816800     -0.463500      0.146538
H      -1.252300     -0.636100     -1.291500      0.113832
H      -1.575600     -2.194200      0.214700      0.310196
H      -0.697800      1.111400      1.205400      0.164209
H      -1.003600      1.797800     -0.418400      0.138946
H       0.927200      0.451600     -1.358800      0.131900
H       1.350700      1.724500     -0.169000      0.133158
H       1.228500     -1.315400      0.356600      0.151949
H       1.443700     -0.076000      1.652900      0.138599
H       3.526500      0.729400      0.530700      0.139209
H       3.614900     -1.032600      0.906200      0.140353
H       3.292500     -0.493800     -0.785700      0.138814
CC(O)CCCC
