7
-17.18911000
C      -0.641100     -0.094200     -0.026700     -0.407936
N       0.804100      0.068700     -0.043600      0.634301
O       1.539800     -0.900900      0.231200     -0.397709
O       1.344000      1.332400     -0.091100     -0.397217
H      -0.917400     -1.090400     -0.433100      0.189499
H      -1.116400      0.690500     -0.652200      0.189452
H      -1.013100     -0.006100      1.015400      0.189609
C[N+](=O)[O-]
