16
-33.70415000
C      -0.950900      0.039200      1.286700     -0.461710
C      -0.642300      0.144400     -0.212300     -0.047543
N      -1.585500     -0.680000     -0.968000      0.575542
O      -2.132400     -0.220900     -1.991800     -0.402533
O      -1.733400     -2.015300     -0.669100     -0.395777
C       0.798900     -0.291100     -0.543200     -0.272235
C       1.851000      0.673800      0.003900     -0.433758
H      -2.025600      0.256200      1.465300      0.161672
H      -0.356500      0.779700      1.861100      0.163677
H      -0.725600     -0.980400      1.665900      0.174651
H      -0.774900      1.208500     -0.513600      0.173184
H       0.992900     -1.311200     -0.145300      0.163001
H       0.914900     -0.333400     -1.648500      0.155145
H       1.646000      1.709700     -0.340600      0.148134
H       2.854500      0.372300     -0.363800      0.151826
H       1.869100      0.648500      1.113100      0.146724
CC([N+](=O)[O-])CC
