21
-36.96276000
C       1.896800     -1.034500      0.270700     -0.443985
C       1.345400      0.372800      0.499800     -0.276559
C       0.195300      0.768900     -0.461500     -0.097746
N      -0.010900      2.218000     -0.386100      0.577874
O      -0.255300      2.865300     -1.425100     -0.405275
O      -0.133700      2.841800      0.834600     -0.355952
C      -1.166800      0.046100     -0.227400     -0.082404
N      -1.483000     -0.098300      1.197000      0.584053
O      -2.061300      0.827700      1.801700     -0.382221
O      -1.069700     -1.204000      1.904700     -0.385093
C      -1.271000     -1.301800     -0.956600     -0.458584
H       2.895700     -1.119800      0.748600      0.158749
H       1.242600     -1.793700      0.741900      0.161301
H       2.009300     -1.247900     -0.813300      0.144324
H       2.185900      1.083100      0.336000      0.174163
H       1.037100      0.484700      1.560900      0.176511
H       0.538700      0.539000     -1.496200      0.186764
H      -1.960000      0.678200     -0.689200      0.209336
H      -2.295300     -1.713400     -0.832300      0.176603
H      -1.085700     -1.165800     -2.043300      0.164276
H      -0.553900     -2.046400     -0.565000      0.173863
CCC([N+](=O)[O-])C([N+](=O)[O-])C
