16
-32.66246000
C       2.357600      0.252100      0.101000     -0.438713
C       1.080200     -0.548400     -0.135400     -0.244558
C      -0.164900      0.301000      0.143600     -0.276155
C      -1.444800     -0.503800     -0.094100     -0.243814
N      -2.614800      0.323600      0.172400      0.603990
O      -3.053800      0.427200      1.336000     -0.397650
O      -3.101000      1.154800     -0.809600     -0.397803
H       2.390200      1.134700     -0.572800      0.147781
H       3.241000     -0.387300     -0.108400      0.144381
H       2.408900      0.594000      1.156700      0.147719
H       1.084700     -1.437800      0.531900      0.138415
H       1.066100     -0.899500     -1.190400      0.138456
H      -0.145300      0.651800      1.198900      0.160590
H      -0.164000      1.190500     -0.524300      0.160819
H      -1.461300     -1.396000      0.570100      0.178266
H      -1.478800     -0.856700     -1.148000      0.178276
CCCC[N+](=O)[O-]
