13
-27.58711000
C      -1.487300      0.191500      0.443600     -0.444029
C      -0.409600     -0.737200     -0.112800     -0.251320
C       0.972700     -0.441700      0.480100     -0.242081
N       1.452000      0.872200      0.064900      0.609955
O       1.895700      1.041500     -1.089300     -0.401263
O       1.301900      1.955200      0.899200     -0.400246
H      -1.527900      0.117700      1.551200      0.151206
H      -2.476300     -0.101300      0.032500      0.150593
H      -1.284000      1.243100      0.151200      0.161431
H      -0.373200     -0.641200     -1.219600      0.160483
H      -0.684900     -1.786300      0.129900      0.151453
H       0.931900     -0.495600      1.589900      0.179310
H       1.689000     -1.218000      0.133400      0.174508
CCC[N+](=O)[O-]
