12
-15.53720000
C       0.237700      0.020500      0.459700     -0.071886
N       1.315900     -0.031600     -0.532100      0.578274
O       2.099500      0.934400     -0.640400     -0.340874
O       1.681100     -1.237400     -1.086300     -0.356866
N      -0.328000      1.368200      0.521200      0.583320
O      -0.623700      1.869500      1.625400     -0.361850
O      -0.727000      2.001600     -0.633400     -0.333586
C      -0.870400     -0.980600      0.121900     -0.464179
H       0.663100     -0.247900      1.452600      0.208258
H      -1.266900     -0.789900     -0.898300      0.188622
H      -1.700900     -0.887600      0.853800      0.179303
H      -0.480300     -2.019300      0.171800      0.191462
C([N+](=O)[O-])([N+](=O)[O-])C
