10
-22.65481000
C       1.093400     -0.040800     -0.309200     -0.444544
C      -0.133400     -0.267600      0.565000     -0.217245
N      -1.325800      0.250300     -0.093800      0.603793
O      -1.945100     -0.460200     -0.912000     -0.397555
O      -1.644700      1.583100      0.020700     -0.397499
H       1.233700      1.045000     -0.496700      0.168293
H       0.973800     -0.567200     -1.279900      0.168135
H       1.995600     -0.435500      0.203800      0.163470
H       0.006100      0.248000      1.539500      0.176534
H      -0.253600     -1.355200      0.762600      0.176617
CC[N+](=O)[O-]
