19
-37.79351000
C      -3.005000     -0.082200     -0.143800     -0.442118
C      -1.654000      0.623000     -0.221300     -0.248065
C      -0.500500     -0.366400     -0.020600     -0.267066
C       0.854800      0.345900     -0.099300     -0.278426
C       2.008300     -0.640000      0.100900     -0.241411
N       3.285200      0.057900      0.017700      0.604089
O       3.759600      0.613600      1.029400     -0.398048
O       3.857800      0.289100     -1.211100     -0.398113
H      -3.819500      0.657700     -0.292400      0.144952
H      -3.081300     -0.858100     -0.935100      0.143731
H      -3.135100     -0.558500      0.851300      0.143738
H      -1.613800      1.410000      0.563100      0.138309
H      -1.560200      1.111700     -1.215700      0.138318
H      -0.602800     -0.853900      0.974200      0.141253
H      -0.549100     -1.152500     -0.806400      0.141243
H       0.960200      0.833300     -1.093600      0.160429
H       0.906500      1.131800      0.686200      0.160409
H       1.970900     -1.428900     -0.681700      0.178396
H       1.918200     -1.133300      1.093900      0.178381
CCCCC[N+](=O)[O-]
