19
-39.72003000
C      -0.902100     -1.258800     -0.379300     -0.467495
C      -0.427500      0.167700     -0.020400      0.136015
C      -1.460000      0.805200      0.927200     -0.479250
N      -0.336900      0.994500     -1.236500      0.563563
O       0.280300      2.080300     -1.208200     -0.403494
O      -1.169000      0.745600     -2.305000     -0.400343
C       0.948700      0.107300      0.705100     -0.280822
C       2.081300     -0.469200     -0.150700     -0.439916
H      -1.949200     -1.244100     -0.751600      0.171129
H      -0.268600     -1.696700     -1.179000      0.168276
H      -0.863600     -1.922600      0.511300      0.158832
H      -1.574700      0.198000      1.851300      0.164346
H      -1.142800      1.830000      1.217300      0.169397
H      -2.450800      0.880200      0.429200      0.168049
H       0.861200     -0.506500      1.628900      0.149681
H       1.245800      1.130000      1.026200      0.165775
H       1.915000     -1.548000     -0.349400      0.145803
H       2.170800      0.075500     -1.113400      0.159915
H       3.042100     -0.368500      0.396900      0.150539
CC(C)([N+](=O)[O-])CC
