13
-29.13951000
C       1.412100     -0.002800      0.036500     -0.463763
C      -0.068600     -0.001700      0.425900     -0.026006
N      -0.637500      1.335000      0.256100      0.578411
O      -1.372900      1.814900      1.143100     -0.404407
O      -0.522800      1.990800     -0.948400     -0.393051
C      -0.856300     -1.014900     -0.407000     -0.464237
H       1.962200      0.746600      0.644500      0.162804
H       1.538000      0.245700     -1.039100      0.176157
H       1.856600     -1.002900      0.227400      0.161999
H      -0.140000     -0.299400      1.496400      0.171062
H      -0.794500     -0.766000     -1.488200      0.172532
H      -1.923500     -1.007700     -0.098800      0.164597
H      -0.452800     -2.037700     -0.248600      0.163903
CC([N+](=O)[O-])C
