18
gdb 15252	3.22624	1.30105	1.10836	2.8409	70.15	-0.2408	-0.0183	0.2225	1128.6634	0.151868	-384.934145	-384.925184	-384.92424	-384.968095	32.033
C         -0.06180        1.57180       -0.27050
C          0.01280        0.10170        0.16070
C         -1.35380       -0.55750        0.12480
C         -1.85790       -1.24920       -1.08800
O         -0.99380       -1.29900       -2.18080
C         -1.55420       -2.08630        0.16620
C         -0.40520       -3.01490        0.18120
O         -0.39260       -4.05310        0.80240
H          0.92270        2.04590       -0.21470
H         -0.42040        1.65700       -1.30080
H         -0.74310        2.14120        0.37150
H          0.70560       -0.42870       -0.49650
H          0.41940        0.03150        1.17670
H         -2.10950       -0.02200        0.69480
H         -2.91310       -1.14960       -1.34070
H         -1.18690       -2.09410       -2.68870
H         -2.40510       -2.45060        0.73250
H          0.46590       -2.71180       -0.43520
