14
gdb 19099	3.79992	2.94837	2.84696	2.783	58.31	-0.2256	0.0337	0.2593	591.8237	0.109514	-382.440003	-382.435338	-382.434393	-382.468484	20.256
O         -0.00390        1.41740        0.15620
C          1.42050        1.41550       -0.04780
C          2.12350        0.72650        1.20910
O          1.11060        0.32490        2.14900
C          0.71400       -0.69710        1.21700
C          0.01100       -0.00800       -0.03990
C          1.38790        0.03430       -0.76490
C          2.07560       -0.63990        0.46480
H          1.81190        2.35670       -0.43550
H          2.98960        1.20220        1.67030
H          0.24940       -1.56530        1.68560
H         -0.92830       -0.41090       -0.42030
H          1.56300       -0.14490       -1.82260
H          2.84800       -1.40460        0.47520
