12
gdb 21698	3.5024	2.37669	1.41662	2.7822	63.16	-0.2361	-0.0714	0.1648	790.4185	0.084604	-410.776246	-410.769636	-410.768692	-410.806851	25.062
N          0.02100        1.30750       -0.02670
C          0.00710       -0.04440        0.02310
N         -1.12630       -0.67920        0.08350
O         -1.08700       -2.07310        0.19000
N          0.06370       -2.78440        0.22380
C          1.18540       -2.15150        0.14270
C          1.31410       -0.71750        0.01980
N          2.38040       -0.01200       -0.09330
H          0.90510        1.72970       -0.26400
H         -0.83670        1.80060       -0.20780
H          2.07050       -2.78190        0.17140
H          3.21680       -0.59950       -0.09070
