19
gdb 5614	3.03373	1.78509	1.23151	1.6509	78.25	-0.1952	0.054	0.2491	1032.0686	0.166172	-327.976159	-327.967592	-327.966648	-328.009275	31.728
C         -0.00520        1.57100        0.07950
C         -0.03500        0.03660       -0.03790
C          0.68910       -0.49200       -1.24370
C          0.11060       -0.89680       -2.42630
N          1.10770       -1.29000       -3.28190
C          2.32350       -1.14720       -2.66180
C          2.10730       -0.65310       -1.39540
C          3.16170       -0.35650       -0.37120
H          1.02150        1.94490        0.14360
H         -0.47010        2.03540       -0.79590
H         -0.54230        1.90940        0.97220
H          0.39570       -0.39770        0.87390
H         -1.07870       -0.29840       -0.06690
H         -0.92660       -0.94090       -2.72010
H          0.96890       -1.64370       -4.21120
H          3.24090       -1.41280       -3.16360
H          3.23020        0.71400       -0.14130
H          2.96480       -0.87100        0.57730
H          4.14790       -0.67840       -0.71910
