15
gdb 11845	6.96503	1.13426	1.10243	4.2338	66.42	-0.2799	0.0258	0.3058	1054.3006	0.11896	-362.643928	-362.636771	-362.635827	-362.675654	26.55
N         -0.81790       -0.73420       -0.94100
C         -0.40840        0.23640       -0.46400
C          0.11630        1.44390        0.14680
C          0.01940        1.57420        1.70660
C          1.45280        2.11000        1.67890
C          1.99360        3.31560        2.30810
O          2.37710        1.99640        2.73280
C          1.67390        1.58860        0.25700
H         -0.32300        2.31460       -0.34590
H         -0.77040        2.21640        2.09940
H         -0.03200        0.59540        2.18950
H          2.77310        3.88700        1.80600
H          1.38780        3.87500        3.01970
H          2.16890        0.61450        0.26110
H          2.16070        2.24190       -0.46870
