13
gdb 3725	7.26294	1.96676	1.71582	1.9966	54.61	-0.2866	-0.024	0.2625	727.3957	0.103844	-336.811524	-336.805191	-336.804247	-336.842703	21.873
C          0.03070        1.54110        0.07600
C         -0.03460        0.01120       -0.06730
C          0.66560       -0.47890       -1.29110
N          0.05110       -0.97050       -2.36370
N          1.08460       -1.23260       -3.15410
N          2.26750       -0.93770       -2.63790
N          2.01830       -0.45470       -1.44990
H          1.06910        1.88170        0.10880
H         -0.46260        2.03480       -0.76670
H         -0.46590        1.86030        0.99660
H          0.42810       -0.45730        0.80790
H         -1.07390       -0.32540       -0.10950
H          0.98300       -1.63380       -4.07430
