15
gdb 18492	6.11529	1.24996	1.16778	5.4442	65.04	-0.2549	0.0327	0.2876	1008.4045	0.119032	-362.628836	-362.621779	-362.620835	-362.6606	26.125
N          0.05580       -1.12600       -0.51880
C          0.01320        0.00030       -0.26530
C         -0.03100        1.42190        0.07040
C          1.34930        2.08280        0.01520
O          1.91780        2.13130       -1.31880
C          2.16950        3.53380       -1.16930
C          0.89010        4.29140       -1.05970
C          1.46110        3.59820        0.16540
H         -0.71850        1.92850       -0.61310
H         -0.43370        1.53130        1.08450
H          2.03940        1.55680        0.68540
H          3.12110        3.91800       -1.51510
H          0.98660        5.37230       -1.03130
H          0.00220        3.92550       -1.56680
H          1.71490        4.12200        1.07630
