13
gdb 3727	7.20798	1.96805	1.68951	1.166	54.44	-0.2903	-0.0227	0.2676	732.5749	0.102894	-340.645686	-340.639404	-340.63846	-340.676378	21.918
C          0.07790        1.54100        0.05690
C         -0.06030        0.01510       -0.06110
C          0.65100       -0.52930       -1.25590
N          0.03300       -1.15600       -2.22270
O          1.06380       -1.47940       -3.12010
C          2.18270       -1.00210       -2.57780
N          2.01830       -0.40790       -1.44120
H          1.13070        1.83140        0.10230
H         -0.37740        2.04310       -0.80200
H         -0.41860        1.89840        0.96310
H          0.36110       -0.46070        0.83200
H         -1.11150       -0.27820       -0.12400
H          3.10020       -1.15560       -3.12740
