20
gdb 18586	4.00048	1.70212	1.33808	0.3954	81.74	-0.2202	0.0267	0.2469	986.905	0.178736	-311.861931	-311.854506	-311.853562	-311.893339	29.367
C         -0.01860        1.56180        0.15450
C          0.00580        0.04710        0.01660
C          1.05810       -0.64030       -0.94170
C          1.25340       -1.76860        0.13230
C          2.57910       -2.16770        0.81090
C          2.32220       -1.85260        2.32320
C          1.25800       -0.75630        2.27890
C          0.64070       -0.79550        1.10270
H          0.97530        1.94380        0.40940
H         -0.33860        2.03760       -0.77880
H         -0.71130        1.87640        0.94260
H         -0.99480       -0.32570       -0.23800
H          0.70520       -0.93610       -1.93310
H          1.95500       -0.02140       -1.04230
H          0.61800       -2.63280       -0.09810
H          2.87150       -3.20770        0.63890
H          3.39440       -1.53240        0.44560
H          1.97420       -2.74420        2.86460
H          3.23230       -1.52070        2.83510
H          1.11940       -0.03400        3.07530
