21
gdb 6372	4.36301	0.95609	0.93389	3.3235	76.93	-0.2395	0.0384	0.2779	1394.9958	0.186699	-366.315288	-366.304958	-366.304014	-366.352289	36.156
C          0.13130        1.49460        0.20760
C         -0.00420       -0.02190        0.06390
C         -1.46410       -0.45700       -0.07150
O         -2.30650        0.24890       -0.60030
N         -1.74080       -1.69860        0.42480
C         -3.05180       -2.33300        0.32380
C         -3.02810       -3.49100       -0.68210
C         -3.53640       -2.78180        1.70630
H          1.18150        1.79760        0.17240
H         -0.41150        1.99350       -0.59750
H         -0.29190        1.84000        1.15570
H          0.51390       -0.35700       -0.84470
H          0.47530       -0.54240        0.90140
H         -0.98840       -2.23280        0.83060
H         -3.70980       -1.54640       -0.05450
H         -2.34070       -4.28160       -0.35730
H         -4.02290       -3.93650       -0.78340
H         -2.70620       -3.14180       -1.66690
H         -4.53700       -3.22030        1.64100
H         -2.87000       -3.54290        2.13110
H         -3.57440       -1.93710        2.39960
