18
gdb 10261	2.06069	2.01156	1.08212	2.4388	74.88	-0.2506	-0.0312	0.2193	1098.6881	0.149803	-347.785584	-347.775962	-347.775018	-347.820213	34.155
C         -0.03080        1.57170        0.03870
C          0.01020        0.03800        0.04260
C          0.80610       -0.48900        1.24220
C         -1.43540       -0.55480        0.02620
C         -2.17710       -0.09440       -1.23380
O         -3.09200        0.68320       -1.23940
C         -1.44870       -2.01350        0.03580
C         -1.47990       -3.21430       -0.02310
H          0.98520        1.97730        0.01960
H         -0.56970        1.97300       -0.82400
H         -0.52460        1.95050        0.94090
H          0.50660       -0.30460       -0.87550
H          0.34630       -0.17000        2.18490
H          0.85580       -1.58040        1.24210
H          1.82810       -0.09790        1.22160
H         -1.99050       -0.16200        0.88680
H         -1.78190       -0.54560       -2.17140
H         -1.50920       -4.27570       -0.04910
