15
gdb 21163	3.27927	1.91697	1.29008	4.0992	64.05	-0.2142	0.0141	0.2283	925.3129	0.12111	-392.14398	-392.136198	-392.135254	-392.176473	28.11
C          0.13720        1.17390        0.46660
N         -0.02510        0.02640       -0.43660
C         -1.21760       -0.70290       -0.25160
C         -1.29030       -2.04400        0.07490
N         -0.28980       -2.99570        0.21100
N         -2.61730       -2.28760        0.14640
N         -3.34370       -1.15860       -0.11100
N         -2.48940       -0.21530       -0.35640
H          1.08060        1.67770        0.23610
H         -0.68170        1.90270        0.39970
H          0.18710        0.81360        1.49870
H          0.05140        0.34110       -1.39850
H          0.61320       -2.53560        0.16030
H         -0.35080       -3.54700        1.05880
H         -3.09650       -3.15540        0.32180
