18
gdb 12827	3.39938	1.94835	1.56437	2.0473	67.09	-0.2472	0.0784	0.3256	865.7381	0.155198	-384.925691	-384.918519	-384.917575	-384.95664	28.625
O         -0.05920        1.38950        0.09330
C          0.01410       -0.00840       -0.01590
C         -0.48990       -0.62370       -1.29480
C         -1.31630       -0.70290       -0.01930
C         -1.45640       -2.02980        0.72550
O         -0.40740       -2.29340        1.64310
C          0.86970       -2.12750        1.06180
C          1.14520       -0.64770        0.76810
H          0.69840        1.76040       -0.37320
H         -0.82670        0.06110       -2.06470
H         -0.03280       -1.53830       -1.66270
H         -2.17770       -0.04560        0.02240
H         -2.37250       -2.02900        1.32210
H         -1.53030       -2.86010        0.00270
H          1.59430       -2.51360        1.78420
H          0.95980       -2.73600        0.14520
H          2.10380       -0.53910        0.24270
H          1.22570       -0.11160        1.71990
