16
gdb 19504	3.95205	1.56972	1.55487	3.4128	70.36	-0.2297	-0.0183	0.2114	884.8361	0.131442	-346.609145	-346.602363	-346.601418	-346.640228	26.001
O          0.03690       -0.05150        0.35500
C          0.00280        1.11490        0.03530
C          1.21320        1.96240       -0.05770
C          1.48320        2.95820       -1.18670
C          0.34670        3.42700       -2.09940
C         -0.59140        4.14750       -1.15390
C         -0.11290        4.18130        0.09240
C          1.20200        3.48060        0.19670
H         -0.95940        1.61280       -0.19910
H          2.09970        1.44310        0.29320
H          2.49020        2.93600       -1.58510
H          0.73040        4.10280       -2.87510
H         -0.14700        2.60420       -2.63100
H         -1.54500        4.55160       -1.47370
H         -0.60330        4.63580        0.94510
H          1.97360        3.86390        0.85520
