17
gdb 18585	3.78348	2.03706	1.62494	1.7917	68.43	-0.2187	0.0068	0.2255	822.1344	0.144275	-363.838558	-363.831899	-363.830955	-363.869353	26.374
O          0.60820        0.85630       -0.89780
C          0.14800       -0.22800       -0.13850
C          0.17150       -0.12880        1.40870
N         -1.21940       -0.65340        1.47980
C         -2.18320        0.22380        2.16580
C         -2.71270        1.13430        1.07740
C         -2.27170        0.75270       -0.12200
C         -1.38830       -0.46070        0.00150
H          0.12130        1.63840       -0.61280
H          0.67080       -1.10730       -0.52050
H          0.90800       -0.73770        1.94240
H          0.26820        0.91430        1.74560
H         -2.99750       -0.35510        2.62650
H         -1.68770        0.76710        2.98150
H         -3.39690        1.95330        1.27030
H         -2.54080        1.20030       -1.07170
H         -1.79010       -1.32580       -0.54170
