15
gdb 16995	3.86099	2.43064	2.23164	1.3083	63.12	-0.2251	0.0079	0.233	686.9934	0.120823	-362.616293	-362.610489	-362.609545	-362.64578	23.762
C          0.01990        1.44230       -0.00100
C          1.34410        0.74220       -0.02840
C          1.77670        0.08080        1.28640
C          0.40770       -0.70370        1.31940
C          0.04940       -0.06170       -0.03290
N          0.00070       -0.73190       -1.31520
C          1.05170       -0.34080       -1.92430
O          1.94140        0.50000       -1.29240
H         -0.28410        1.94980        0.90970
H         -0.28070        1.92940       -0.92090
H          2.62750       -0.58620        1.13820
H          1.99570        0.75530        2.11950
H          0.53950       -1.78400        1.24640
H         -0.26820       -0.48210        2.15030
H          1.33090       -0.59990       -2.93910
