16
gdb 9515	2.79151	1.92332	1.58607	3.3796	60.08	-0.2745	0.0023	0.2768	871.665	0.129867	-420.90075	-420.892693	-420.891748	-420.933117	29.145
C         -0.04340        1.57270       -0.09900
C         -0.06150        0.04700       -0.07110
C         -1.47410       -0.51550        0.17070
O         -1.98520       -0.09850        1.41820
C          0.79000       -0.68650       -1.13160
O          1.65500       -1.23280       -0.07680
C          0.92750       -0.60860        0.89740
O          1.06460       -0.67940        2.08070
H          0.97570        1.96540       -0.16040
H         -0.60640        1.94100       -0.96340
H         -0.51580        1.96330        0.80460
H         -2.16340       -0.13690       -0.59250
H         -1.45390       -1.61400        0.08470
H         -1.36260       -0.38420        2.09960
H          0.30270       -1.49680       -1.67880
H          1.36290       -0.05100       -1.80930
