18
gdb 7956	3.38863	1.72791	1.30807	4.4992	67.3	-0.26	0.0185	0.2785	969.3902	0.154047	-385.002177	-384.994273	-384.993329	-385.034262	29.782
C         -0.76790        1.31710       -0.01500
C          0.04990        0.03020       -0.08500
C          1.26460        0.05840       -1.01950
C          2.18760       -1.00630       -0.43740
O          3.11980       -1.55150       -0.95190
O          1.79350       -1.28380        0.83630
C          0.69220       -0.44030        1.24670
C          1.22100        0.65570        2.16560
H         -0.15100        2.17280        0.27630
H         -1.21040        1.54380       -0.98980
H         -1.58730        1.23000        0.70650
H         -0.60750       -0.78190       -0.41910
H          1.04550       -0.16000       -2.06550
H          1.78620        1.02310       -0.98860
H          0.00860       -1.08580        1.80640
H          1.88950        1.34070        1.63440
H          0.39820        1.23750        2.59080
H          1.78350        0.20520        2.98720
