15
gdb 20195	3.65456	3.0273	2.28937	1.6991	68.85	-0.2082	0.0025	0.2108	651.4233	0.122236	-325.504751	-325.499516	-325.498572	-325.533627	22.403
C         -0.01310        1.47070        0.08940
C          1.23360        1.94780       -0.00760
C          2.21650        0.78270       -0.03510
C          2.55210        0.58680        1.43910
C          1.70180       -0.29930        1.97100
C          0.86030       -0.88020        0.91240
C          0.00390        0.00370       -0.02720
N          1.36890       -0.41470       -0.38890
H         -0.91560        2.04980        0.23720
H          1.54080        2.98140        0.09820
H          3.06870        0.89050       -0.71040
H          3.25310        1.21400        1.97690
H          1.61790       -0.56510        3.01690
H          0.56730       -1.92600        0.97240
H         -0.81050       -0.50390       -0.53930
