11
gdb 204	9.29377	3.53254	2.60086	1.3204	47.12	-0.2395	0.0074	0.2468	485.0096	0.086195	-285.326726	-285.321574	-285.32063	-285.355221	18.123
C         -0.01150        1.50030        0.04340
C          0.00270        0.01100       -0.02730
C         -0.07750       -0.81010       -1.10250
O         -0.02270       -2.10700       -0.66420
C          0.08970       -1.99350        0.67650
N          0.11070       -0.78060        1.11870
H          0.90680        1.87730        0.50530
H         -0.10200        1.94060       -0.95280
H         -0.84890        1.85350        0.65410
H         -0.16970       -0.66590       -2.16500
H          0.14980       -2.91300        1.23760
