15
gdb 10890	3.07752	2.04255	1.56881	2.9617	61.41	-0.2392	-0.0179	0.2213	843.6081	0.117387	-399.776583	-399.76877	-399.767826	-399.808557	28.487
C         -0.00590        1.55000        0.03620
C         -0.03590        0.05530       -0.05200
C         -0.84230       -0.81360        0.81250
N          0.64770       -0.83730        1.02010
C          1.12440       -1.67930       -0.05740
O          1.77180       -2.67890       -0.01650
C          0.57930       -0.76730       -1.18220
O         -0.32350       -1.29520       -2.12030
H          0.98040        1.94360       -0.22900
H         -0.74090        1.98570       -0.64960
H         -0.24660        1.88350        1.04910
H         -1.35740       -0.35660        1.65110
H         -1.32380       -1.69910        0.40830
H          1.40970       -0.22490       -1.66080
H          0.14090       -1.96880       -2.62980
