15
gdb 13922	3.61593	1.82807	1.4962	2.9963	61.56	-0.248	-0.0366	0.2114	855.603	0.11861	-399.76069	-399.753515	-399.752571	-399.792557	26.023
O         -0.08280        0.02470       -0.16040
C         -0.08070        1.20700        0.00120
C         -1.13450        2.28370        0.31010
N         -0.00970        3.24450        0.47930
C          1.00100        2.29540       -0.01880
C          2.37840        2.12660        0.65150
O          3.06300        2.24890       -0.61270
C          1.83710        2.52030       -1.30700
H         -1.80500        2.46910       -0.53980
H         -1.73950        2.12890        1.20960
H         -0.09190        4.09840       -0.06050
H          2.62340        2.93910        1.34660
H          2.56120        1.15630        1.12730
H          1.65840        1.81900       -2.13090
H          1.78690        3.55160       -1.68630
