13
gdb 3123	5.43971	2.3682	1.93612	4.2932	56.17	-0.2476	-0.0289	0.2186	660.799	0.101102	-344.41385	-344.407777	-344.406833	-344.443793	22.266
O         -0.04320       -0.01540        0.01650
C          0.03780        1.18130       -0.10060
C          1.28550        1.95390       -0.06170
C          1.37080        3.40490        0.36200
C          1.80540        3.03600       -1.02190
C          3.10170        2.23330       -0.95830
O          2.55340        1.32520        0.03590
H         -0.85970        1.82580       -0.25170
H          0.42630        3.93610        0.42430
H          2.09920        3.65340        1.12840
H          1.34000        3.42720       -1.91630
H          3.32650        1.69440       -1.88420
H          3.99650        2.75290       -0.59790
