15
gdb 1647	5.06989	1.88432	1.39759	0.6274	60.01	-0.2269	-0.0558	0.1711	857.6672	0.123611	-341.863083	-341.854591	-341.853647	-341.896885	28.573
C         -0.04940        1.42290       -0.04370
N          0.14420       -0.00630        0.01850
C          0.71360       -0.61460        1.08480
N          1.11860        0.04440        2.11210
C          0.80130       -2.12990        0.89920
C          1.41710       -2.94700        2.01330
O          0.38330       -2.63790       -0.11860
H          0.90620        1.95410        0.03550
H         -0.52330        1.67770       -0.99350
H         -0.68380        1.77110        0.77970
H         -0.13920       -0.60970       -0.73550
H          1.51680       -0.57890        2.80920
H          0.85860       -2.81170        2.94550
H          1.40530       -3.99920        1.72910
H          2.44780       -2.62860        2.20140
