22
gdb 13019	2.43103	2.35591	1.53311	0.211	81.09	-0.2526	0.0841	0.3367	954.7576	0.201591	-313.086933	-313.07882	-313.077876	-313.118634	32.481
C         -0.04450        1.55630       -0.01370
C          0.04280        0.02860        0.01650
C          0.79210       -0.57600       -1.19490
C          1.32150       -1.94490       -0.71360
C          1.54320       -1.76120        0.78050
C          2.26210       -0.50840        1.22820
C          0.74980       -0.55790        1.24500
C          0.01840       -0.52980        2.56620
H          0.95450        2.00570        0.01440
H         -0.54270        1.90530       -0.92470
H         -0.60940        1.94550        0.83990
H         -0.98180       -0.37280        0.02420
H          0.15120       -0.65830       -2.07730
H          1.62580        0.07650       -1.47830
H          0.56740       -2.72540       -0.87350
H          2.22330       -2.25520       -1.25350
H          1.62400       -2.64440        1.40650
H          2.76330       -0.54500        2.19010
H          2.77970        0.09990        0.49290
H         -0.14140        0.49630        2.91870
H         -0.96580       -1.00750        2.48470
H          0.58090       -1.05710        3.34340
