14
gdb 5092	3.33145	2.02498	1.26812	3.1561	59.68	-0.1691	0.0439	0.2131	885.5535	0.107805	-415.872998	-415.865024	-415.864079	-415.904643	30.025
N          0.15410        1.40560       -0.13070
C          0.03930       -0.01150       -0.07580
C         -1.06650       -0.83470       -0.00840
O         -2.39740       -0.56800        0.02780
N         -0.65170       -2.12430        0.02360
C          0.74760       -2.17640       -0.02220
C          1.17910       -0.87950       -0.08360
O          2.45890       -0.43060       -0.14360
H         -0.19830        1.88500        0.69020
H         -0.25400        1.82570       -0.95830
H         -2.50010        0.38920       -0.00510
H         -1.26830       -2.91480        0.07360
H          1.27650       -3.11210       -0.00670
H          2.38480        0.53450       -0.17580
