21
gdb 2573	2.69458	2.48161	1.61521	0.1209	74.08	-0.2621	0.0816	0.3437	894.3035	0.19418	-274.983908	-274.975372	-274.974428	-275.016521	31.947
C          0.84160       -0.18180       -1.23500
C         -0.07290       -0.21330       -0.00380
C          0.60590       -0.71360        1.26550
C          1.76650        0.11650        1.80020
C          1.37790        1.53700        2.22970
C         -0.26880       -1.40000        2.28920
C          0.68930       -2.21160        1.44790
H          1.27810       -1.16820       -1.42470
H          0.28440        0.11730       -2.12830
H          1.66650        0.52730       -1.11180
H         -0.49020        0.78720        0.16820
H         -0.93210       -0.86200       -0.21460
H          2.20020       -0.40960        2.65960
H          2.56440        0.16660        1.04810
H          1.02720        2.13680        1.38380
H          0.57650        1.51570        2.97580
H          2.23300        2.06030        2.66900
H         -0.03270       -1.26350        3.33980
H         -1.33070       -1.48980        2.08420
H          0.27250       -2.84680        0.67260
H          1.56890       -2.62490        1.93070
