22
gdb 16528	2.6821	2.10435	1.60892	0.1736	80.56	-0.2577	0.0751	0.3327	942.0269	0.201246	-313.048603	-313.040445	-313.039501	-313.080983	32.053
C          0.26260        1.63660        0.13860
C          0.10520        0.12480        0.01270
C          1.05670       -0.65890       -0.96970
C          1.97430        0.09260       -1.92620
C          1.65160       -1.43690        0.23520
C          2.78480       -0.74300        1.04900
C          1.73690       -0.23190        2.08240
C          0.59440       -0.77950        1.19360
H          1.29370        1.94070        0.34200
H         -0.04840        2.13800       -0.78450
H         -0.36090        2.02630        0.95130
H         -0.94380       -0.08440       -0.22020
H          0.44910       -1.35310       -1.56120
H          2.60090        0.83150       -1.41820
H          2.64300       -0.60260       -2.44670
H          1.39550        0.62520       -2.68910
H          1.75650       -2.51690        0.11470
H          3.52520       -1.43230        1.46190
H          3.32790        0.03910        0.51200
H          1.80200       -0.76450        3.03520
H          1.73170        0.83950        2.30010
H         -0.19030       -1.34880        1.69520
