15
gdb 9314	6.19416	0.88004	0.78179	4.5681	64.42	-0.3146	-0.0674	0.2472	1401.8707	0.117176	-399.837793	-399.82897	-399.828026	-399.872478	29.397
C          0.07470        1.45460        0.00870
C         -0.04180       -0.07260        0.00200
C         -1.49200       -0.52080        0.01350
O         -1.50420       -1.97290        0.00610
C         -2.70650       -2.53950        0.01470
O         -3.77080       -1.98380        0.02770
C         -2.57170       -4.00350        0.00580
N         -2.52590       -5.15730       -0.00020
H          1.12390        1.76100        0.00030
H         -0.40850        1.89680       -0.86900
H         -0.39180        1.88780        0.89980
H          0.45090       -0.48750       -0.88430
H          0.46780       -0.49650        0.87430
H         -2.02580       -0.17570        0.90480
H         -2.04280       -0.16640       -0.86360
