16
gdb 1865	4.83654	2.28334	1.83124	3.2588	61.62	-0.2527	0.0329	0.2856	734.083	0.138268	-325.810616	-325.803923	-325.802979	-325.841237	25.091
C          0.42950        1.44320        0.02810
C         -0.10330        0.01510       -0.00850
C          0.37590       -0.81490       -1.21650
C          1.64120       -1.49320       -0.67470
C          1.37170       -1.58370        0.81210
N          1.96970       -2.33980        1.62760
O          0.37230       -0.71380        1.14730
H          1.51830        1.46330       -0.08570
H         -0.01160        2.03320       -0.78180
H          0.17720        1.91950        0.97920
H         -1.19460        0.02740        0.06880
H         -0.37640       -1.56520       -1.47670
H          0.55240       -0.19530       -2.09830
H          1.84440       -2.47780       -1.09580
H          2.53270       -0.87750       -0.83710
H          1.61100       -2.19770        2.57360
