21
gdb 13449	3.22531	1.26436	1.11536	3.214	75.81	-0.2275	0.0763	0.3038	1180.1036	0.187485	-366.231676	-366.22217	-366.221226	-366.266187	34.529
C         -0.12790        1.46740        0.60800
C          0.16060        0.01870        0.27950
C          0.52480       -0.46250       -1.09110
C          0.66750        0.45070       -2.28890
N          1.50730       -0.49830       -0.00490
C          2.68030        0.37510       -0.00640
C          3.48690        0.06620        1.25850
O          3.77750       -1.31070        1.34810
H          0.33960        2.17470       -0.07900
H         -1.20880        1.63950        0.57070
H          0.20840        1.71190        1.62180
H         -0.41820       -0.66890        0.89640
H          0.17430       -1.45830       -1.36540
H          0.99480        1.45840       -2.02670
H          1.39440        0.04050       -2.99860
H         -0.29060        0.53420       -2.81290
H          3.28560        0.12180       -0.88440
H          2.45510        1.44980       -0.05220
H          4.43830        0.60950        1.23950
H          2.92320        0.41740        2.14060
H          2.95700       -1.74380        1.06970
