11
gdb 948	6.31354	2.91643	1.99492	2.6127	53.66	-0.2547	-0.0356	0.2191	589.2643	0.081891	-335.683118	-335.677266	-335.676322	-335.713378	20.266
N         -0.01600        1.32840        0.00810
C          0.00230       -0.01840        0.00080
N         -1.18550       -0.65560        0.00420
C         -1.08690       -1.97750       -0.00340
N          0.03860       -2.69790       -0.01360
C          1.14420       -1.94720       -0.01590
N          1.20690       -0.62310       -0.00930
H          0.85100        1.83490        0.00570
H         -0.89650        1.81110        0.01560
H         -2.02340       -2.53260       -0.00100
H          2.09540       -2.47660       -0.02420
