16
gdb 10564	2.92704	1.59508	1.17074	2.681	62.77	-0.2572	-0.0357	0.2215	1040.676	0.127175	-420.844043	-420.835345	-420.8344	-420.87797	29.69
C          0.20360        1.47560        0.04710
O          0.34580        0.07460        0.08900
C          0.49280       -0.49860       -1.18730
C          0.49060       -1.99550       -1.02580
C          1.36650       -2.85500       -1.85430
O          1.67750       -2.60240       -0.49700
C         -0.77750       -2.63370       -0.53480
O         -1.86380       -2.12310       -0.60870
H          1.08560        1.96190       -0.39880
H         -0.68550        1.77690       -0.52790
H          0.09360        1.82050        1.07750
H         -0.34320       -0.21380       -1.84630
H          1.43270       -0.17480       -1.66250
H          1.05880       -3.87330       -2.09000
H          2.01020       -2.37780       -2.59190
H         -0.61540       -3.64840       -0.10730
