9
gdb 765	9.86886	3.93452	2.81731	3.0643	40.19	-0.2475	0.0015	0.249	427.0676	0.063595	-317.41389	-317.409159	-317.408214	-317.441698	17.011
N          0.00620        1.34200        0.14080
C         -0.04510       -0.00930        0.04500
N         -1.10960       -0.76930        0.02910
C         -0.53750       -2.01290       -0.01590
N          0.76490       -2.05600       -0.03230
O          1.11220       -0.67590        0.01000
H          0.85860        1.79030       -0.15370
H         -0.84980        1.82360       -0.08160
H         -1.11660       -2.92550       -0.03950
