18
gdb 7674	3.62388	1.85622	1.64528	2.1619	66.97	-0.2429	0.0714	0.3143	860.873	0.152936	-384.904789	-384.897065	-384.896121	-384.936525	29.768
C          0.21050        1.51550        0.03170
C          0.04340        0.00720       -0.00530
O         -1.31990       -0.37850       -0.11260
C          0.96360       -0.80990       -0.98440
C          1.45740       -1.68790        0.19730
C          2.67120       -1.11560        0.94480
O          1.83060       -0.23900        1.73540
C          0.63140       -0.80990        1.17800
H          1.24080        1.78570        0.27370
H         -0.04370        1.95590       -0.94070
H         -0.44940        1.94960        0.78910
H         -1.66480       -0.01920       -0.93760
H          0.37820       -1.35600       -1.72750
H          1.74680       -0.24020       -1.49360
H          1.36920       -2.76870        0.10720
H          3.19770       -1.83510        1.58480
H          3.40650       -0.56260        0.34650
H         -0.07850       -1.15760        1.93260
