18
gdb 12085	3.19536	1.74281	1.60437	2.7387	67.13	-0.2316	0.0824	0.3141	903.7101	0.15244	-384.903338	-384.895239	-384.894295	-384.935606	31.065
C          0.09360        1.17940       -1.10910
C         -0.06940        0.06060       -0.10510
C          1.09150       -0.74670        0.30330
O          0.59360        0.29200        1.15840
C         -1.46230       -0.49330        0.01210
C         -1.89390       -1.25720        1.25310
C         -2.41240        0.13340        1.01150
O         -2.02540        1.21230        1.80450
H          1.12300        1.54560       -1.12210
H         -0.16910        0.83610       -2.11530
H         -0.57080        2.00910       -0.84880
H          0.93710       -1.76060        0.66730
H          2.07060       -0.54710       -0.12890
H         -1.88470       -0.80840       -0.93860
H         -2.55980       -2.10530        1.13570
H         -1.15570       -1.36430        2.04190
H         -3.45090        0.24780        0.71830
H         -1.10450        1.07400        2.06000
