16
gdb 18866	3.8111	2.30076	1.89576	1.0661	71.21	-0.2072	-0.0272	0.1801	745.8836	0.130938	-346.499267	-346.492786	-346.491841	-346.529581	25.942
O          0.13810        1.37340       -0.53540
C          0.10710        0.03600       -0.13180
C         -1.27430       -0.69010       -0.07340
C         -1.80950       -1.46210       -1.34340
C         -1.30650       -1.21060       -2.77750
C          0.10820       -0.74570       -2.45170
C          0.41410       -1.06590       -1.17860
C         -0.65880       -1.97720       -0.56130
H          0.90330        1.79940       -0.13930
H          0.59500       -0.09260        0.84510
H         -1.95520       -0.58420        0.76820
H         -2.80840       -1.86520       -1.18330
H         -1.42290       -2.12070       -3.38320
H         -1.82380       -0.40330       -3.30980
H          0.49940        0.15140       -2.92030
H         -0.52200       -2.91740       -0.04510
