16
gdb 11445	4.52414	1.33078	1.21343	4.0476	60.33	-0.2634	0.0155	0.2789	998.8518	0.131215	-420.918767	-420.911128	-420.910184	-420.951157	27.647
O          0.09380        1.25350       -0.33020
C          0.00540       -0.14580       -0.11810
C         -1.45660       -0.47710        0.17720
C         -2.35960       -0.17820       -1.03550
O         -2.41600       -1.39690       -1.79870
C         -2.07470       -2.46940       -1.03420
O         -2.10510       -3.59090       -1.44900
C         -1.67740       -1.98260        0.35810
H          0.98560        1.46340       -0.62160
H          0.34110       -0.70870       -1.00420
H          0.62930       -0.46380        0.73160
H         -1.77070        0.10740        1.04540
H         -3.37760        0.09220       -0.73360
H         -1.95600        0.60820       -1.67440
H         -0.80680       -2.53720        0.71490
H         -2.50480       -2.19830        1.04240
