17
gdb 12982	2.71368	2.63787	1.61501	2.9864	69.37	-0.2515	0.0296	0.2811	832.8194	0.143603	-363.879151	-363.871941	-363.870997	-363.910292	27.776
C         -0.09110        1.51140       -0.02710
C          0.03770        0.01070        0.00780
C         -0.78890       -0.83710        0.96150
C          0.70450       -0.80140        1.10100
C          1.45330       -1.91480        0.39670
O          1.01070       -1.88780       -0.97250
C          0.37670       -0.70450       -1.25690
N          0.12320       -0.28950       -2.42280
H          0.83940        1.98110       -0.36060
H         -0.87730        1.80500       -0.72810
H         -0.34150        1.90530        0.96230
H         -1.37170       -0.29110        1.69540
H         -1.26060       -1.74130        0.58900
H          1.16170       -0.32710        1.96080
H          2.53760       -1.75040        0.42350
H          1.24040       -2.91280        0.79340
H          0.48780       -0.93860       -3.12180
