17
gdb 5063	3.25914	1.95546	1.24328	1.5514	71.98	-0.1855	0.037	0.2225	970.6225	0.14177	-363.899495	-363.890877	-363.889933	-363.932416	31.253
C          0.11960        1.49070       -0.03160
C         -0.05160        0.01320       -0.04090
C         -1.14160       -0.80350        0.04360
C         -2.58340       -0.43330        0.19620
C         -0.63070       -2.15190       -0.02990
N         -1.41940       -3.30630        0.10520
C          0.71940       -2.04370       -0.15410
O          1.08610       -0.72270       -0.15490
H          0.78940        1.80910        0.77540
H          0.54910        1.85320       -0.97310
H         -0.84350        1.98510        0.11200
H         -3.18020       -0.73310       -0.67580
H         -3.02850       -0.92250        1.07070
H         -2.71220        0.64540        0.31720
H         -2.28790       -3.24320       -0.41230
H         -0.93220       -4.14740       -0.17650
H          1.52020       -2.75940       -0.23240
