22
gdb 12569	2.85505	1.72938	1.18993	1.4605	77.2	-0.2568	0.0741	0.331	1071.3718	0.202835	-350.221917	-350.21366	-350.212716	-350.254312	32.265
O         -0.16930        1.50060        0.13450
C          0.00200        0.08840        0.00370
C          0.81580       -0.46990        1.18390
C          1.52070       -1.82270        0.95840
C          0.74560       -2.89790        0.16850
C         -0.77270       -2.95830        0.40820
C         -1.56550       -1.94930       -0.43960
C         -1.42260       -0.47200       -0.05500
H          0.70170        1.89600        0.23890
H          0.52510       -0.13470       -0.94310
H          1.58570        0.26640        1.45110
H          0.15030       -0.52650        2.05390
H          2.47470       -1.64890        0.44560
H          1.78550       -2.22360        1.94410
H          0.91070       -2.75150       -0.90690
H          1.19260       -3.87100        0.40240
H         -1.12590       -3.96410        0.15190
H         -0.99940       -2.82230        1.47440
H         -1.27150       -2.08150       -1.49030
H         -2.63140       -2.20280       -0.39370
H         -1.88280       -0.29590        0.92620
H         -1.98430        0.13840       -0.77050
