12
gdb 18422	3.46911	1.9927	1.61787	5.1405	58.92	-0.2705	-0.0249	0.2456	778.9122	0.084787	-377.519989	-377.513571	-377.512627	-377.550782	23.734
O          0.01280        0.05400        0.10450
C          0.02740        1.24370        0.03370
N         -1.00360        2.21130        0.05020
C         -0.05480        3.31460       -0.04130
C          0.96180        3.29480        1.07930
C          0.61720        2.85320        2.40540
N          0.31530        2.51620        3.46950
C          1.09280        2.33440       -0.11830
H         -1.77590        2.18460        0.70700
H         -0.25590        4.18760       -0.64700
H          1.68840        4.10320        1.05650
H          1.97740        2.33170       -0.73830
