14
gdb 2327	6.51154	1.58973	1.38458	4.3587	55.96	-0.2369	0.0338	0.2706	843.174	0.113016	-361.713179	-361.70594	-361.704996	-361.744995	25.736
O         -0.08140        1.42680        0.04200
C          0.02780        0.02990        0.02550
C         -0.48510       -0.76420        1.20400
C         -1.27600       -0.70120       -0.09080
N         -2.45280        0.10380       -0.16800
C         -3.68990       -0.42310       -0.35660
O         -3.94020       -1.60840       -0.42070
H          0.50690        1.76980        0.72220
H          0.88280       -0.35260       -0.52950
H          0.01120       -1.69210        1.46610
H         -0.88330       -0.19660        2.03820
H         -1.33180       -1.59550       -0.69950
H         -2.31860        1.10390       -0.17960
H         -4.46030        0.36810       -0.45170
