18
gdb 9487	2.92856	1.64921	1.54293	1.9303	73.71	-0.2489	0.0278	0.2767	957.2722	0.151143	-347.756837	-347.748035	-347.747091	-347.790028	32.596
C         -0.44210        1.39270        0.00160
C          0.08080       -0.03110       -0.08870
C          1.42490       -0.29100       -0.79560
O          1.94400       -1.01630        0.33700
C          0.77880       -0.69600        1.15390
C          1.17580        0.21470        2.31480
C          0.11330       -1.89980        1.64280
C         -0.45480       -2.87900        2.04790
H          0.32270        2.09170        0.35250
H         -0.77470        1.73560       -0.98420
H         -1.30000        1.45970        0.67870
H         -0.70260       -0.69130       -0.46630
H          1.39270       -0.90980       -1.69920
H          2.01480        0.61230       -1.00480
H          1.69990        1.09990        1.94670
H          0.29680        0.52940        2.88520
H          1.84620       -0.32830        2.98600
H         -0.94800       -3.75040        2.40220
