24
gdb 13883	3.64384	1.33426	1.04708	0.062	84.76	-0.3003	0.0807	0.381	1225.3602	0.224646	-314.299816	-314.290658	-314.289714	-314.334047	34.643
C         -0.05470        1.56940        0.12510
C          0.01760        0.03720        0.03800
C          0.83920       -0.51960        1.21010
C         -1.38430       -0.59260       -0.03690
C         -2.23040       -0.12770       -1.25490
C         -3.14530       -1.32440       -1.64510
C         -2.84710       -2.43100       -0.60910
C         -1.41590       -2.13070       -0.14380
H          0.94830        2.00810        0.15640
H         -0.58160        2.00380       -0.72920
H         -0.58020        1.88280        1.03560
H          0.54090       -0.22350       -0.89500
H          0.34020       -0.32070        2.16660
H          0.98750       -1.60010        1.13000
H          1.82800       -0.05040        1.25130
H         -1.92340       -0.31600        0.88240
H         -2.80710        0.77230       -1.02540
H         -1.56880        0.13240       -2.08930
H         -4.20430       -1.05200       -1.66130
H         -2.89910       -1.67510       -2.65260
H         -3.53190       -2.34500        0.24350
H         -2.96800       -3.43920       -1.01610
H         -0.69420       -2.46340       -0.90350
H         -1.15850       -2.63440        0.79200
