17
gdb 10814	4.87811	1.49444	1.19084	4.2592	71.28	-0.2386	-0.0317	0.2069	999.3232	0.144147	-363.915627	-363.908196	-363.907252	-363.947203	28.297
C          0.03880        1.59110       -0.00590
C         -0.00850        0.05800        0.00710
C          0.63200       -0.52860       -1.25770
N          0.77540       -1.97360       -1.14140
C          1.30150       -2.56490       -0.01560
O          1.70950       -3.71370       -0.00790
C          1.27860       -1.71060        1.20060
C          0.66300       -0.52640        1.22610
H          1.07230        1.95340       -0.02120
H         -0.47330        1.99280       -0.88610
H         -0.44850        2.00430        0.88250
H         -1.06510       -0.25210        0.03190
H          0.01160       -0.30850       -2.13170
H          1.60830       -0.04150       -1.41850
H          0.91730       -2.50970       -1.98520
H          1.74430       -2.14940        2.07540
H          0.60610        0.04450        2.15080
