16
gdb 5529	3.12673	1.84878	1.24787	1.5598	67.92	-0.1961	0.0242	0.2202	971.8737	0.130069	-383.769957	-383.761844	-383.7609	-383.803011	29.177
C          0.01360        1.58810        0.28660
C         -0.02110        0.08890       -0.05970
C         -1.39390       -0.47520       -0.14760
C         -2.12590       -0.99740       -1.17330
O         -1.67660       -1.11480       -2.45650
C         -3.40470       -1.37090       -0.64250
C         -3.35730       -1.04510        0.67580
O         -2.15880       -0.50440        0.99430
H          1.04530        1.94740        0.35360
H         -0.50610        2.17680       -0.47530
H         -0.47480        1.77540        1.24720
H          0.46260       -0.08550       -1.02620
H          0.56150       -0.46710        0.68720
H         -2.34690       -1.56360       -2.97850
H         -4.23340       -1.81720       -1.17140
H         -4.06590       -1.13390        1.48270
