20
gdb 7009	2.57518	1.81976	1.4641	1.6375	70.32	-0.2367	0.0641	0.3008	976.6513	0.174903	-386.135439	-386.126268	-386.125324	-386.168207	35.142
C         -0.87300        1.19200       -0.06410
C          0.04880       -0.01740       -0.08310
C          1.42400        0.06800       -0.80420
C          1.99810       -0.86420        0.29100
O          3.32120       -0.71800        0.74650
C          0.78990       -0.47880        1.20690
C          1.12420        0.62410        2.20730
O          0.11040       -1.54610        1.84340
H         -0.36010        2.09100        0.29360
H         -1.24940        1.40750       -1.07000
H         -1.73940        1.01860        0.58310
H         -0.49780       -0.89100       -0.45310
H          1.48670       -0.26150       -1.84300
H          1.85170        1.07570       -0.73280
H          1.89120       -1.91490        0.00600
H          3.48510        0.21870        0.89580
H          1.57300        1.50190        1.73000
H          0.22060        0.95080        2.72880
H          1.84040        0.25330        2.94990
H          0.63420       -1.82540        2.60270
