20
gdb 12365	2.84676	2.0051	1.3811	1.7555	76.1	-0.248	0.0144	0.2625	963.3501	0.178318	-349.025717	-349.017625	-349.016681	-349.057687	31.501
C         -0.02250        1.57560        0.00650
C          0.04280        0.04700       -0.00670
C          0.73710       -0.50420       -1.26080
C          0.64360       -2.03460       -1.31560
C          0.95250       -2.66640        0.01570
C          0.97650       -1.99100        1.16600
C          0.72660       -0.50750        1.26210
O          1.94690        0.17840        1.57920
H          0.98210        2.00640        0.02240
H         -0.54870        1.95120       -0.87710
H         -0.55000        1.94200        0.89390
H         -0.98490       -0.34620        0.00400
H          0.30170       -0.06340       -2.16400
H          1.79330       -0.20010       -1.24870
H         -0.36690       -2.33730       -1.63080
H          1.31780       -2.43690       -2.08210
H          1.15410       -3.73580        0.01730
H          1.22850       -2.49690        2.09480
H          0.07660       -0.29980        2.12150
H          2.63900       -0.20970        1.03380
