16
gdb 13948	5.07147	1.41364	1.27004	1.304	69.5	-0.2354	0.0475	0.2828	969.5357	0.129171	-346.524383	-346.516864	-346.51592	-346.556349	28.482
C         -0.65540       -0.25410        1.20910
C         -0.11660        0.24920        0.26020
C          0.54300        0.87430       -0.87880
C          1.66700        1.79780       -0.48420
C          2.63540        1.64660        0.64340
C          1.82490        2.92610        0.50900
C          2.35400        3.71890       -0.67870
O          2.25620        2.55610       -1.54970
H         -1.13910       -0.70600        2.03940
H          0.94590        0.10120       -1.54810
H         -0.18620        1.44180       -1.47090
H          2.31130        0.99790        1.45030
H          3.70240        1.64320        0.43580
H          1.15840        3.28740        1.27990
H          1.67800        4.51030       -1.02130
H          3.37820        4.10590       -0.61930
