20
gdb 14092	2.99036	1.66321	1.43054	1.5003	75.29	-0.2495	0.0776	0.3271	994.5815	0.176601	-348.9829	-348.974502	-348.973557	-349.015406	32.262
C         -0.14810        1.46030       -0.00250
C          0.02870       -0.04060        0.04610
C          1.38470       -0.66630       -0.19600
C          0.77150       -0.71830        1.17000
C          1.22050       -0.08200        2.49290
C          0.31870       -1.10930        3.23960
C          0.23310       -1.94390        1.92930
O         -0.99060       -2.51880        1.54410
H          0.73230        1.97700        0.39280
H         -0.29680        1.80440       -1.03190
H         -1.01460        1.78740        0.58430
H         -0.81150       -0.61060       -0.34700
H          1.43550       -1.58710       -0.76970
H          2.22680        0.00340       -0.34910
H          2.28550       -0.23320        2.69380
H          0.98810        0.97490        2.64550
H          0.72440       -1.60090        4.12640
H         -0.65780       -0.68230        3.49140
H          0.95330       -2.76910        1.92790
H         -1.65230       -1.81830        1.54020
