20
gdb 12072	3.59557	1.59357	1.4566	1.1713	74.21	-0.242	0.0708	0.3128	976.6356	0.17632	-348.977244	-348.968979	-348.968035	-349.009421	32.296
C          0.06360        1.56530       -0.03950
C          0.02390        0.04030        0.11620
C         -1.38050       -0.55430        0.00060
O         -2.23120       -0.06110        1.02870
C         -2.09820       -0.52770       -1.40320
C         -2.27600       -2.04880       -1.31510
C         -0.93470       -2.71420       -1.21480
C         -1.52510       -2.08140        0.01500
H          1.09060        1.93820        0.01130
H         -0.35590        1.88300       -1.00090
H         -0.49690        2.06790        0.75690
H          0.67000       -0.41660       -0.64130
H          0.43200       -0.24270        1.09410
H         -2.33210        0.88790        0.90060
H         -3.03800        0.02440       -1.33740
H         -1.52160       -0.16270       -2.26080
H         -3.16640       -2.59300       -1.60430
H         -0.94850       -3.79970       -1.21530
H         -0.06590       -2.28810       -1.71150
H         -1.74010       -2.64320        0.91570
