18
gdb 2345	6.40034	1.30255	1.18155	1.4088	65.55	-0.2448	0.0801	0.325	1051.1728	0.159133	-326.938562	-326.930243	-326.929299	-326.971516	29.072
C         -0.26910        1.34760       -0.00700
O         -0.16960       -0.05300       -0.07820
C          0.78500       -0.48580       -1.02600
C          0.80260       -1.99090       -1.01440
N         -0.08240       -2.68530       -1.96420
C          1.37620       -2.82830       -2.10330
C          2.01110       -2.28470       -3.36270
H          0.68730        1.81320        0.28300
H         -0.58310        1.78620       -0.96780
H         -1.02010        1.58550        0.75050
H          0.52940       -0.11490       -2.02970
H          1.78390       -0.09140       -0.76580
H          0.87320       -2.39760       -0.00650
H         -0.49150       -3.51040       -1.53530
H          1.80850       -3.77130       -1.76820
H          1.52260       -1.36470       -3.69020
H          3.07580       -2.07870       -3.20690
H          1.92630       -3.01300       -4.17640
