20
gdb 7839	3.6167	1.13378	1.03	1.8851	71.67	-0.2492	0.0749	0.3241	1228.8145	0.175181	-386.122218	-386.11284	-386.111896	-386.156541	34.668
C         -0.22430        1.54890        0.06330
C         -0.29040        0.02890       -0.08140
O          0.99810       -0.56150        0.10300
C         -1.33390       -0.59990        0.85410
C         -1.44770       -2.09810        0.67460
C         -2.67750       -2.84070        1.16100
C         -2.42000       -2.67070       -0.31640
O         -3.18700       -1.75610       -1.04960
H          0.54430        1.96060       -0.59650
H         -1.18390        2.01270       -0.18660
H          0.02320        1.83110        1.09500
H         -0.55810       -0.22390       -1.11370
H          1.30180       -0.31840        0.98510
H         -1.06150       -0.36850        1.89500
H         -2.30550       -0.13220        0.66770
H         -0.50040       -2.62170        0.75240
H         -2.56530       -3.82310        1.60760
H         -3.47600       -2.23800        1.58310
H         -2.10530       -3.54870       -0.88020
H         -4.07220       -2.12160       -1.14670
