17
gdb 3607	3.93266	3.93149	2.79415	0.1978	66.48	-0.2578	0.089	0.3468	584.9857	0.151502	-272.542369	-272.537156	-272.536212	-272.57088	22.08
C         -0.03590        1.51260        0.02160
C          1.51330        1.55250        0.01430
C          2.14170        1.18990        1.38380
C          1.84260       -0.31040        1.13620
C          0.35130       -0.67970        1.34150
C         -0.00720       -0.03620       -0.02170
C          1.52680        0.02590       -0.36880
H         -0.55610        1.99140        0.85890
H         -0.43730        1.91750       -0.91290
H          1.99310        2.34170       -0.56590
H          3.22050        1.37530        1.37540
H          1.71690        1.65500        2.28070
H          2.58970       -1.03320        1.46640
H          0.21360       -1.76500        1.30440
H         -0.15230       -0.29650        2.23620
H         -0.76100       -0.53630       -0.63110
H          2.00700       -0.41380       -1.24010
