14
gdb 13447	3.62289	1.5043	1.38659	3.4742	54.52	-0.2602	-0.0006	0.2596	910.2988	0.105336	-456.796506	-456.788721	-456.787777	-456.828865	28.034
O         -0.04180        1.38620        0.27650
C          0.10470        0.00550        0.12440
C         -0.66070       -0.81020        1.14210
O         -1.39710       -0.10490        2.08010
C         -1.11780       -0.77150       -0.31360
O         -2.20460        0.05590       -0.64680
C         -3.40450       -0.22880       -0.05870
O         -4.36440        0.44940       -0.24780
H         -0.74970        1.67350       -0.31620
H          1.08790       -0.30550       -0.21610
H         -0.24340       -1.74040        1.51640
H         -1.12820        0.82280        1.98510
H         -1.00240       -1.64250       -0.95160
H         -3.36460       -1.13720        0.56260
