12
gdb 7884	4.09297	1.90813	1.30142	4.7858	62.17	-0.2449	-0.0643	0.1806	847.661	0.084988	-414.729616	-414.722664	-414.72172	-414.76086	25.469
N          0.08850        1.34320        0.00740
C         -0.05750        0.01150        0.00090
C         -1.13000       -0.81950        0.00290
C         -0.64510       -2.18790       -0.00780
O         -1.19780       -3.24470       -0.01000
O          0.79200       -2.13810       -0.01610
C          1.16660       -0.83650       -0.01120
N          2.33920       -0.36590       -0.01560
H          1.02660        1.71160        0.00400
H         -0.69430        1.97120        0.01600
H         -2.18110       -0.57940        0.01070
H          3.04240       -1.10550       -0.02390
