12
gdb 3431	5.06575	2.99991	2.14371	5.1179	49.93	-0.2532	-0.0006	0.2526	588.9499	0.092355	-360.521191	-360.515868	-360.514924	-360.550287	19.964
O          0.02250        0.01470        0.20600
C          0.03110        1.19250        0.00130
O         -1.10990        1.91850       -0.18610
C         -0.83450        3.25970       -0.62800
C          0.66690        3.44010       -0.50940
N          1.11730        3.22610        0.87180
C          1.20880        2.11910       -0.12180
H         -1.17360        3.36040       -1.66470
H         -1.39350        3.95010        0.00920
H          1.19140        4.12500       -1.16510
H          2.04970        3.61910        0.98660
H          2.16950        1.72030       -0.41880
