13
gdb 13061	4.1866	1.42775	1.12524	5.3138	56.44	-0.2655	-0.0058	0.2597	984.0532	0.094773	-435.766685	-435.759042	-435.758098	-435.799852	25.718
O         -0.03120        0.05790       -0.15350
C          0.05510        1.24180       -0.26200
O          1.03450        1.94570        0.36410
C          1.02860        3.34850        0.16670
C          2.33010        4.03650        0.65050
N          2.50490        4.51230       -0.72850
C          1.43450        3.84170       -1.25850
O          1.00580        3.68700       -2.36860
H         -0.62000        1.87720       -0.86080
H          0.10740        3.80070        0.54620
H          2.20330        4.82980        1.39150
H          3.08680        3.32060        0.98140
H          3.25160        5.02850       -1.16990
