19
gdb 18757	3.3535	1.92994	1.47408	2.0048	72.22	-0.2119	0.0788	0.2906	924.2435	0.165123	-365.014517	-365.006696	-365.005751	-365.0464	29.677
C          0.22130        1.53930       -0.11740
C          0.04230        0.04880        0.04980
O          0.86610       -0.73850       -0.86560
C          1.33520       -1.58660        0.19710
C          2.69320       -1.17160        0.79310
N          2.00730       -0.15020        1.62340
C          2.35880       -0.06410        3.02210
C          0.67460       -0.67950        1.25950
H          1.24550        1.82420        0.13210
H          0.00640        1.82960       -1.15050
H         -0.46900        2.08180        0.53840
H         -1.01190       -0.23870       -0.07860
H          1.13440       -2.64500        0.01990
H          3.13950       -1.98270        1.39060
H          3.43940       -0.77620        0.09640
H          3.39100        0.28870        3.12090
H          1.71080        0.66080        3.52590
H          2.27890       -1.02820        3.56120
H          0.03790       -1.00730        2.08480
