12
gdb 645	8.47292	3.05155	2.7368	1.7363	46.16	-0.2554	0.0656	0.3209	497.7555	0.096163	-306.313924	-306.308576	-306.307632	-306.342736	19.054
C          0.06620        1.52840        0.00960
O          1.19910        0.64060       -0.00600
C         -0.09050        0.07750        0.00330
C         -0.61790       -0.89880        1.05030
O         -1.18950       -1.71680        0.00420
C         -0.63800       -0.88760       -1.04370
H         -0.07580        2.08570        0.93460
H         -0.09340        2.09560       -0.90640
H          0.16680       -1.42200        1.61140
H         -1.37830       -0.52170        1.74450
H         -1.41150       -0.50310       -1.71910
H          0.13580       -1.40460       -1.62550
