22
gdb 7546	3.02617	1.24715	1.02657	1.6591	78.97	-0.254	0.0891	0.3431	1274.0536	0.197603	-350.205843	-350.195829	-350.194885	-350.240854	36.202
C          0.15660        1.58290       -0.05920
C          0.36890        0.06710       -0.05710
C          0.25290       -0.54400        1.34850
C          0.52660       -2.03880        1.37810
C         -0.53960       -2.91300        0.74530
O          1.87490       -2.42130        1.03670
C          1.42450       -2.65710        2.37670
C          2.14950       -1.94790        3.49180
H          0.89330        2.08740        0.57610
H          0.25010        1.99620       -1.06830
H         -0.83830        1.84670        0.31740
H         -0.35830       -0.40100       -0.73130
H          1.36060       -0.17330       -0.45710
H          0.94940       -0.02260        2.01160
H         -0.75350       -0.36270        1.74970
H         -0.69610       -2.64730       -0.30480
H         -0.24670       -3.96500        0.78490
H         -1.49650       -2.79730        1.26630
H          1.23670       -3.71400        2.58610
H          2.35670       -0.90390        3.25120
H          1.56330       -1.98690        4.41660
H          3.10790       -2.44200        3.68420
