14
gdb 5633	3.30977	1.79845	1.17377	1.8679	59.24	-0.2065	0.0304	0.2369	947.827	0.106854	-419.684732	-419.677011	-419.676066	-419.717257	27.777
O         -0.03950        1.44630        0.05880
C          0.01950        0.03010       -0.00780
C         -1.37660       -0.49860       -0.00450
C         -2.53980        0.20210        0.05040
O         -3.61330       -0.62690        0.03370
C         -3.13180       -1.90500       -0.03420
C         -1.77080       -1.87670       -0.05960
O         -0.86200       -2.88930       -0.12370
H          0.86110        1.78190        0.05610
H          0.54240       -0.30870       -0.91750
H          0.57740       -0.39020        0.84540
H         -2.74700        1.25650        0.10260
H         -3.86250       -2.69570       -0.05590
H         -1.32660       -3.73160       -0.15290
