18
gdb 19821	3.68632	2.09608	1.83818	1.7113	70.21	-0.2416	0.0726	0.3142	806.7744	0.154877	-347.743054	-347.736353	-347.735409	-347.773509	27.173
C         -0.33220        1.55020       -0.12710
C          0.08330        0.09420       -0.07060
O          1.19350       -0.26730       -0.95370
C          1.80760       -1.07400        0.08670
C          3.00620       -0.44710        0.83240
C          2.85830        1.03890        0.88620
C          2.00940        0.20490        1.81350
C          0.82570       -0.52840        1.13340
H         -0.55470        1.83550       -1.16050
H         -1.24440        1.69180        0.46300
H          0.43270        2.22310        0.26330
H         -0.78330       -0.53230       -0.33220
H          1.88780       -2.12880       -0.18630
H          3.94300       -0.95270        1.03280
H          3.66960        1.55850        1.38680
H          2.44810        1.56240        0.03250
H          2.10130        0.31520        2.88730
H          0.26620       -1.18410        1.79950
