14
gdb 3570	5.39413	2.9941	2.78965	3.0039	55.96	-0.2296	0.0639	0.2935	554.0052	0.115414	-324.485913	-324.480807	-324.479863	-324.51449	20.615
C          0.01070        1.51920        0.08860
O          1.46350        1.51680        0.05490
C          1.50100        0.08490       -0.02340
C          1.56830       -0.70060        1.31580
N          0.76040        0.04630        2.30630
C          0.07630       -0.82170        1.32750
C         -0.03850       -0.02500        0.00480
H         -0.37560        1.96680        1.00790
H         -0.39900        2.03180       -0.78970
H          2.13370       -0.29920       -0.82800
H          2.33660       -1.39140        1.64220
H          0.81820       -0.46980        3.18320
H         -0.55590       -1.63870        1.65270
H         -0.60700       -0.49360       -0.79590
