13
gdb 21810	6.91835	1.15677	1.0789	3.6448	59.31	-0.2615	-0.0603	0.2012	1029.3682	0.095719	-394.791219	-394.784073	-394.783129	-394.824904	24.002
O         -0.28180        0.30180        0.75920
C         -0.00370        1.05740       -0.12920
C          1.31320        1.84100       -0.16300
N          1.33140        2.87770       -1.17090
C          1.79680        2.80180       -2.45660
N          1.58510        3.92070       -3.09770
N          0.95120        4.77970       -2.22100
C          0.80820        4.14100       -1.08970
H         -0.67390        1.23960       -0.99840
H          1.49520        2.26760        0.82750
H          2.12560        1.13310       -0.35960
H          2.28000        1.92230       -2.85430
H          0.35470        4.53230       -0.19160
