15
gdb 4550	4.00199	1.67698	1.19077	2.0774	64.19	-0.1691	0.0642	0.2333	956.5773	0.117915	-399.820875	-399.812315	-399.81137	-399.854027	30.379
C         -0.05530        1.46100        0.02670
N         -0.01390        0.01570       -0.00070
C         -0.01190       -0.77140       -1.15430
C          0.09580       -2.07720       -0.75580
O          0.11570       -3.14240       -1.61120
C          0.17280       -2.11410        0.67080
C          0.10430       -0.79920        1.08030
O          0.13940       -0.22660        2.31330
H          0.89570        1.89840       -0.30000
H         -0.85100        1.82560       -0.62990
H         -0.26040        1.79200        1.04490
H         -0.09370       -0.33050       -2.13220
H          0.21480       -3.94470       -1.09180
H          0.25840       -2.98420        1.30440
H          0.14110       -0.92880        2.96980
