13
gdb 2597	3.07354	2.82058	1.7439	3.905	54.65	-0.2799	0.0127	0.2926	717.485	0.101807	-340.609236	-340.602142	-340.601198	-340.64059	24.98
O          0.14340        1.32760        0.48980
C         -0.00430        0.07520       -0.14250
C         -1.41450       -0.48660       -0.00920
C         -1.60350       -1.95170        0.21930
N         -1.87520       -0.99870        1.29380
C         -2.40580        0.26680       -0.75240
N         -3.14100        0.90460       -1.37650
H         -0.38690        1.97450        0.01070
H          0.27450        0.11400       -1.20580
H          0.69020       -0.60600        0.36110
H         -2.47910       -2.44730       -0.18720
H         -0.70260       -2.55970        0.25340
H         -1.10430       -0.95080        1.95670
