14
gdb 19760	3.91141	2.35141	2.27549	1.7009	53.95	-0.2393	0.0832	0.3225	663.0209	0.109515	-419.652448	-419.646987	-419.646043	-419.681772	22.608
O          0.09550        1.39230        0.11480
C          0.01230       -0.00710        0.04690
C         -1.37590       -0.57470       -0.25300
C         -1.42980       -0.57270       -1.77700
O         -0.18770       -0.07200       -2.25900
C          0.65070       -0.61040       -1.23320
O          0.31920       -1.98380       -1.16340
C         -1.08980       -1.84160       -1.04120
H         -0.16580        1.72320       -0.75430
H          0.45910       -0.41440        0.95540
H         -2.23450       -0.43370        0.38690
H         -2.28370       -0.38320       -2.40940
H          1.70200       -0.44840       -1.45160
H         -1.64850       -2.76530       -1.02710
