16
gdb 12427	3.41519	1.99469	1.3602	3.5734	72.58	-0.2308	-0.0485	0.1823	893.0875	0.131679	-346.631402	-346.624327	-346.623383	-346.662997	26.74
O         -0.25740        1.34840       -1.69620
C         -0.11180        1.60600       -0.51810
C         -1.30350        1.61200        0.43990
C         -1.47560        2.92780        1.16060
C         -0.58590        3.42560        2.01350
C          0.71430        2.74590        2.38310
C          1.59230        2.29500        1.24260
C          1.24430        1.85380        0.02640
H         -2.18710        1.35540       -0.14600
H         -1.14200        0.80650        1.17190
H         -2.38020        3.48780        0.94270
H         -0.78600        4.37560        2.50070
H          1.30390        3.41210        3.02030
H          0.50000        1.86970        3.02060
H          2.65930        2.35200        1.45320
H          2.02660        1.61700       -0.69020
