17
gdb 7067	3.37059	1.29404	0.99713	3.325	71.26	-0.2498	0.0257	0.2755	1154.4977	0.140073	-363.860356	-363.851203	-363.850259	-363.894531	32.562
C          0.02880        1.59640       -0.01580
C         -0.02980        0.06610       -0.02640
C          0.66540       -0.49850       -1.28440
C          0.70570       -1.95550       -1.33130
C          0.74670       -3.15710       -1.33100
N          0.60250       -0.50560        1.16360
C          0.06660       -0.37950        2.40660
O         -0.88090        0.32320        2.69320
H          1.06750        1.94340       -0.00210
H         -0.46140        2.00040       -0.90760
H         -0.48150        1.97820        0.86880
H         -1.08220       -0.24500       -0.03980
H          0.14240       -0.11000       -2.16530
H          1.68860       -0.10220       -1.33420
H          0.77490       -4.21860       -1.35340
H          1.25170       -1.26530        1.02020
H          0.61160       -0.99110        3.15380
