15
gdb 19682	4.54558	1.90742	1.6897	1.3824	63.7	-0.2412	-0.0309	0.2102	779.3801	0.119771	-362.604275	-362.597946	-362.597002	-362.635011	23.967
O         -0.67970        0.86230        0.60690
C          0.11720        1.02780       -0.28280
C          1.27720        1.98750       -0.23410
C          1.34510        3.17800       -1.18900
C          0.65920        4.34270       -0.54850
C          0.12920        3.92340        0.81110
C          1.40580        3.06100        0.86420
N          2.08140        4.01520       -0.18180
H          0.03770        0.45250       -1.23540
H          2.20970        1.41550       -0.32950
H          1.63420        3.17300       -2.23360
H          0.42280        5.23620       -1.11560
H          0.19980        4.75430        1.51730
H         -0.84040        3.43110        0.90080
H          1.91430        2.84630        1.80060
