16
gdb 20213	3.35678	2.80592	2.16248	2.7643	61.86	-0.2506	0.0766	0.3271	690.3172	0.134083	-383.736389	-383.730715	-383.729771	-383.766149	22.889
C          0.00390        1.56160       -0.15120
O          1.35570        1.98560        0.03790
C          2.06260        0.97800        0.73340
O          1.91500        1.10760        2.13350
C          0.72220        0.43400        2.54130
C          0.36000       -0.51880        1.40950
C         -0.00330        0.05150        0.04770
C          1.41070       -0.35770        0.34790
H         -0.65950        2.08650        0.55040
H         -0.30110        1.82880       -1.16900
H          3.12100        1.10040        0.50220
H          0.93520       -0.11240        3.46660
H         -0.07150        1.16400        2.75360
H         -0.03510       -1.49520        1.66450
H         -0.63750       -0.54960       -0.59340
H          1.95920       -1.15600       -0.13280
