14
gdb 4043	6.22933	1.30222	1.09168	2.5911	62.63	-0.2627	-0.0171	0.2456	1008.9265	0.107142	-415.835076	-415.827718	-415.826774	-415.867523	26.637
O         -0.18320        1.32160       -0.05000
N          0.01360       -0.06830        0.01420
C         -1.10160       -0.67470        0.01750
C         -2.47750       -0.05620       -0.03700
O         -3.39530       -1.15190       -0.00550
C         -2.75730       -2.36290        0.06040
N         -3.34520       -3.47670        0.09950
C         -1.25390       -2.16750        0.07900
H          0.71860        1.66010       -0.04570
H         -2.66160        0.60580        0.81670
H         -2.62730        0.52620       -0.95320
H         -4.35840       -3.35000        0.07520
H         -0.79120       -2.67610       -0.77160
H         -0.82220       -2.60110        0.98550
