18
gdb 6442	3.59533	1.43312	1.23968	2.9447	72.6	-0.2649	0.0287	0.2936	1041.8177	0.154025	-343.990204	-343.981725	-343.980781	-344.022968	31.621
C          0.06860        1.65040        0.04020
C          0.04680        0.13100        0.01870
C          1.04010       -0.61600       -0.91420
C          1.28880       -1.66260        0.21830
N          2.68750       -1.99740        0.46270
C          0.66130       -0.64090        1.21940
C          0.43770       -2.85340        0.05330
N         -0.19620       -3.81360       -0.07050
H          1.08110        2.02650        0.22450
H         -0.27420        2.06510       -0.91400
H         -0.58360        2.04480        0.82710
H         -0.97170       -0.22540       -0.16630
H          0.67350       -0.98860       -1.87210
H          1.96170       -0.04750       -1.06620
H          2.76390       -2.57760        1.29520
H          3.04810       -2.55890       -0.30550
H          1.47200       -0.07970        1.69200
H         -0.01110       -1.03360        1.98380
