14
gdb 2250	3.95502	3.09738	2.07201	2.6062	58.81	-0.2582	0.0219	0.2801	650.2931	0.113308	-324.551244	-324.544847	-324.543903	-324.581267	24.01
C         -0.02680        1.58140        0.03880
C          0.04310        0.08460        0.00260
C         -0.87250       -0.85510        0.80410
C          0.60340       -0.96920        0.93440
O          1.11820       -1.74350       -0.18280
C          0.69120       -0.74620       -1.06240
N          0.88490       -0.61000       -2.29240
H          0.93820        2.02680       -0.22080
H         -0.76840        1.95120       -0.67650
H         -0.31380        1.93650        1.03320
H         -1.38930       -0.36140        1.62230
H         -1.42860       -1.64880        0.31480
H          1.21510       -0.91230        1.82420
H          1.42530       -1.38910       -2.67200
