15
gdb 12038	3.8866	1.80708	1.57129	4.1306	64.85	-0.264	0.0088	0.2729	842.3993	0.117944	-362.630264	-362.623008	-362.622064	-362.661459	27.46
C         -0.06500        1.57160        0.01460
C          0.06330        0.05750        0.08330
O          1.08530       -0.47790       -0.81090
C          1.66800       -1.22570        0.26830
C          2.22040       -0.29960        1.29770
C          0.73870       -0.62070        1.29100
C         -1.22730       -0.58730       -0.22010
N         -2.24850       -1.08210       -0.43770
H          0.88060        2.04280        0.28860
H         -0.32970        1.87890       -1.00070
H         -0.84760        1.91650        0.69640
H          1.98210       -2.24180        0.06680
H          2.75870       -0.77210        2.11370
H          2.59740        0.67410        1.00160
H          0.21300       -1.06250        2.12500
