12
gdb 21635	5.71764	1.50532	1.19257	2.9017	61.22	-0.2361	-0.0514	0.1847	915.9632	0.085935	-410.880435	-410.873811	-410.872867	-410.91131	24.145
N         -0.00750        1.33330        0.12850
C         -0.00760       -0.02950        0.04260
N         -1.10690       -0.76070        0.02920
N         -0.59480       -2.03580        0.00380
C         -1.37470       -3.19620       -0.01840
O         -2.57110       -3.22260       -0.01510
C          0.77070       -1.97480       -0.00600
N          1.18230       -0.73790        0.01700
H          0.83020        1.78030       -0.20850
H         -0.87020        1.78640       -0.12960
H         -0.72460       -4.09050       -0.04050
H          1.39300       -2.85750       -0.03010
