19
gdb 3074	9.5789	1.015	0.97607	1.0314	68.72	-0.2497	0.0927	0.3424	1230.2077	0.170876	-310.895183	-310.886862	-310.885917	-310.928318	29.269
C          0.13120        1.34020        0.07810
O         -0.08190       -0.04110       -0.07140
C          0.68160       -0.60540       -1.11560
C          0.38210       -2.09860       -1.18740
C          1.14290       -2.79010       -2.29760
C          2.55840       -3.26720       -2.07500
C          1.43660       -4.26600       -2.22120
H          1.18260        1.57030        0.31550
H         -0.14110        1.89860       -0.83230
H         -0.49880        1.68360        0.90270
H          0.43550       -0.11890       -2.07650
H          1.75850       -0.43900       -0.94070
H          0.63390       -2.55330       -0.22160
H         -0.69840       -2.23100       -1.32320
H          0.92950       -2.40660       -3.29300
H          3.27370       -3.17200       -2.88450
H          2.98730       -3.13190       -1.08710
H          1.11450       -4.79940       -1.33270
H          1.38310       -4.85140       -3.13240
