15
gdb 3738	7.14287	2.00998	1.60029	2.2288	64.09	-0.2255	0.0279	0.2534	780.9089	0.126236	-304.726439	-304.719229	-304.718285	-304.758379	24.805
C         -0.04710        1.42800        0.06390
N          0.02360       -0.01440       -0.00970
C          0.08630       -0.79180       -1.12140
C          0.04670       -2.10990       -0.70920
C          0.10540       -3.34370       -1.55730
C         -0.04790       -2.01010        0.69810
N         -0.06510       -0.74680        1.11660
H          0.45140        1.86160       -0.80570
H         -1.08540        1.77700        0.09170
H          0.45900        1.75560        0.97300
H          0.15790       -0.35840       -2.10740
H          0.98360       -3.95690       -1.32470
H         -0.77620       -3.97820       -1.41220
H          0.15540       -3.08970       -2.62000
H         -0.09530       -2.81200        1.42160
