20
gdb 10185	2.16234	1.44436	0.91544	4.4247	76.55	-0.2431	0.0315	0.2746	1309.618	0.176085	-345.196222	-345.186358	-345.185414	-345.23144	34.51
C          0.00450        1.57360        0.07200
C          0.12230        0.05350        0.10090
N          0.54800       -0.45560       -1.20400
C          0.64000       -1.90970       -1.28620
C          0.86760       -2.38180       -2.73860
C         -0.33080       -2.12840       -3.65770
C          1.75350       -2.37760       -0.43860
N          2.61720       -2.76830        0.22210
H          0.95680        2.02820       -0.21450
H         -0.75700        1.89910       -0.64660
H         -0.28400        1.95640        1.05510
H          0.87530       -0.24630        0.83860
H         -0.83470       -0.39220        0.43080
H         -0.10270       -0.13760       -1.91430
H         -0.26870       -2.41360       -0.90020
H          1.76120       -1.88050       -3.12400
H          1.08640       -3.45390       -2.71230
H         -1.24340       -2.58470       -3.25860
H         -0.52430       -1.06160       -3.81060
H         -0.14780       -2.56150       -4.64520
