15
gdb 17730	4.66787	2.59462	2.1146	0.9899	63.87	-0.2397	0.0766	0.3163	664.35	0.120822	-362.528393	-362.523164	-362.52222	-362.55734	22.177
C         -0.08570        1.53120        0.00260
N          1.44850        1.31580       -0.02780
C          1.29540        0.16650        0.99680
C          1.82390       -0.99480        0.14120
C          0.67270       -2.05450        0.25950
O         -0.55670       -1.25150        0.23460
C          0.04470        0.01040        0.11750
C          1.23850        0.02220       -0.85030
H         -0.42930        2.09100        0.87670
H         -0.48480        1.95020       -0.92500
H          1.34820        0.34910        2.06930
H          2.84870       -1.36820        0.13880
H          0.65570       -2.75510       -0.58170
H          0.71050       -2.61590        1.19870
H          1.22470        0.03580       -1.93930
