15
gdb 10138	2.81786	1.33641	0.95574	4.1855	66.86	-0.2763	-0.0203	0.256	1183.2381	0.118268	-358.847995	-358.8392	-358.838256	-358.882015	29.954
C         -0.17210        1.56750        0.23430
C         -0.33900        0.08420        0.54400
N         -0.95590       -0.60360       -0.59690
C         -1.16230       -2.02820       -0.39530
C         -2.09310       -2.36520        0.71690
N         -2.80260       -2.54700        1.61030
C         -1.62880       -2.65730       -1.64370
N         -1.99010       -3.14150       -2.62670
H          0.32280        2.07490        1.06670
H          0.42530        1.71100       -0.66990
H         -1.14390        2.05020        0.08300
H          0.64270       -0.37680        0.71140
H         -0.91720       -0.04570        1.47310
H         -1.83640       -0.16220       -0.84540
H         -0.19070       -2.47590       -0.14480
