16
gdb 19829	3.51332	2.35123	1.9532	2.759	62.49	-0.2461	0.0632	0.3093	736.1343	0.131517	-383.671733	-383.665541	-383.664596	-383.701732	25.429
O          0.10170        1.42180       -0.13880
C          0.01370        0.03240       -0.00210
C          0.28880       -0.60300        1.40740
C         -1.11540       -1.26540        1.38540
C         -2.28270       -0.41950        1.95390
O         -2.00190        0.96730        1.69880
C         -2.55580        0.17450        0.63150
C         -1.40770       -0.63190       -0.01720
H         -0.44440        1.79240        0.56660
H          0.66000       -0.39290       -0.77490
H          1.11380       -1.31910        1.41340
H          0.44810        0.13010        2.20100
H         -1.20000       -2.33850        1.55050
H         -2.93360       -0.62480        2.79640
H         -3.47080        0.54590        0.18470
H         -1.69690       -1.23590       -0.87710
