18
gdb 18164	3.69075	1.59861	1.42557	1.602	67.11	-0.2333	0.0662	0.2995	954.8407	0.153292	-384.89292	-384.885108	-384.884164	-384.924965	29.797
C         -0.16780        1.49260        0.08450
C          0.19580        0.02360       -0.15690
C          0.74700       -0.64580        1.08940
O         -0.18120       -0.68130        2.23220
C          0.13850       -2.06180        2.46310
C         -0.39870       -2.86380        1.33490
O         -1.57910       -2.51090        0.68460
C          0.94080       -2.15800        1.16570
H          0.70680        2.07220        0.40070
H         -0.56470        1.95450       -0.82400
H         -0.92510        1.58040        0.86920
H         -0.66810       -0.53820       -0.52160
H          0.96790       -0.05130       -0.93430
H          1.65310       -0.12300        1.42610
H          0.32040       -2.37150        3.48640
H         -0.29810       -3.94120        1.43610
H         -1.84670       -1.66600        1.07160
H          1.85840       -2.68590        0.94080
