20
gdb 20290	4.9832	1.46495	1.38503	0.151	78.78	-0.2685	0.0951	0.3636	984.0107	0.179144	-311.798674	-311.791708	-311.790763	-311.830129	28.007
C          0.33830        1.55080        0.28080
C          1.15000        0.48910       -0.41280
C         -0.26590        0.19030        0.02310
C         -0.60840       -0.71030        1.18970
C         -1.02570       -2.20290        0.97370
C          0.46800       -2.53550        0.69500
C          0.46860       -1.57780        1.92540
C         -0.71410       -2.42300        2.48080
H          0.60210        1.79340        1.30570
H         -0.01810        2.39620       -0.29740
H          1.35040        0.59890       -1.47340
H          1.96150        0.03420        0.14440
H         -1.00090        0.16390       -0.77870
H         -1.28130       -0.18220        1.87730
H         -1.89660       -2.56240        0.42180
H          0.77770       -3.56660        0.88820
H          0.89640       -2.16000       -0.23390
H          1.33520       -1.22010        2.48530
H         -1.37640       -1.93210        3.19970
H         -0.47800       -3.44630        2.78480
