14
gdb 3252	6.12748	2.3641	2.13336	1.1681	57.27	-0.244	0.0748	0.3189	638.4985	0.113999	-324.497671	-324.491922	-324.490978	-324.527013	22.367
C         -0.04720        1.50820       -0.05580
N          1.20970        0.73420        0.08430
C         -0.06820        0.03550        0.00630
C         -0.52960       -0.96310        1.09840
C         -0.91600       -1.91940       -0.04550
O         -1.87100       -1.23680       -0.86670
C         -0.47810       -0.95690       -1.07130
H         -0.31560        2.09230        0.82010
H         -0.26830        1.98690       -1.00650
H          1.69450        0.69030       -0.80990
H          0.31670       -1.31100        1.69570
H         -1.35380       -0.65860        1.74730
H         -0.93030       -3.00250       -0.05820
H         -0.07560       -1.09870       -2.06900
