21
gdb 15268	2.20369	1.84056	1.2052	2.6531	75.82	-0.2132	0.0666	0.2798	1099.8544	0.187093	-366.226287	-366.216625	-366.215681	-366.260472	35.094
C         -1.04720        2.12410       -0.80250
C         -0.94760        0.81670       -1.58730
N         -1.67030       -0.24160       -0.88920
C         -1.40910       -1.65310       -1.16590
C         -0.40620       -2.14190       -2.19360
C         -1.02550       -1.04970        0.15020
C          0.41050       -0.88880        0.58360
O          0.44820        0.13350        1.57590
H         -0.55520        2.93780       -1.34510
H         -2.09500        2.39390       -0.64270
H         -0.56770        2.01300        0.17380
H         -1.42120        0.92900       -2.57040
H          0.11230        0.58830       -1.78050
H         -2.32280       -2.24910       -1.17130
H          0.53210       -1.58480       -2.19030
H         -0.16910       -3.19580       -2.01190
H         -0.83000       -2.07220       -3.20160
H         -1.67470       -1.23910        1.00530
H          0.75780       -1.84850        0.99960
H          1.06910       -0.64240       -0.25870
H          1.35540        0.21780        1.88460
