14
gdb 10453	3.3574	1.56336	1.24888	4.5515	62.57	-0.2799	-0.0549	0.225	953.3634	0.106484	-378.717083	-378.709254	-378.70831	-378.749955	27.317
O         -0.29760        0.42080        0.94990
C         -0.05970        1.16550        0.03040
C          1.22320        1.93170       -0.07880
C          1.56620        2.53100       -1.43530
C          1.67760        1.51640       -2.48510
N          1.74340        0.70630       -3.30600
C          1.64970        2.62860        1.18150
N          2.34670        1.43590        0.72380
H         -0.78890        1.32560       -0.79100
H          0.80360        3.26020       -1.73470
H          2.51650        3.06660       -1.35890
H          2.20610        3.55840        1.09630
H          0.98240        2.55320        2.03500
H          2.01320        0.62810        1.25130
