16
gdb 18450	3.35117	1.71043	1.40266	4.6113	65.74	-0.2331	-0.0122	0.2208	909.3205	0.130216	-383.711318	-383.703912	-383.702968	-383.743088	27.811
O          0.03140        1.41820       -0.16380
C          0.02850        0.02160        0.02800
C          0.23350       -0.56880        1.47150
C         -1.13580       -1.24580        1.33930
C         -2.25120       -0.24190        1.12600
C         -2.33370        1.10500        1.75570
O         -3.37410        1.56480        2.16540
C         -1.34790       -0.62710       -0.03680
H          0.94390        1.72550       -0.16540
H          0.70920       -0.46990       -0.67930
H          1.05910       -1.28290        1.51200
H          0.35390        0.15400        2.28200
H         -1.37090       -2.25030        1.66790
H         -3.23180       -0.70590        1.05780
H         -1.38910        1.67510        1.82330
H         -1.78980       -1.05520       -0.92820
