14
gdb 5187	7.4518	1.19652	1.05809	4.9613	66.83	-0.213	0.0228	0.2359	1055.7819	0.108644	-378.744367	-378.737269	-378.736325	-378.776342	25.96
N         -0.03290        1.29870        0.13270
C         -0.13930        0.08690       -0.19750
O         -1.04290       -0.70300        0.43220
C         -0.97790       -2.05550        0.20030
C          0.13960       -2.86120        0.24110
N         -0.29320       -4.14090       -0.01400
C         -1.64940       -4.15320       -0.20120
C         -2.11080       -2.86320       -0.07600
H          0.66040        1.75610       -0.45580
H          0.42020       -0.44860       -0.97470
H          1.17170       -2.63760        0.45150
H          0.30160       -4.94940       -0.04530
H         -2.17360       -5.07120       -0.41070
H         -3.12950       -2.52350       -0.16890
