14
gdb 15737	3.14177	1.72953	1.25609	2.8429	63.03	-0.2683	-0.0215	0.2468	939.8334	0.106752	-378.729643	-378.721762	-378.720818	-378.763342	26.969
O         -0.61200       -0.09930        1.13660
C         -0.21620        0.98920        0.79780
C          1.28000        1.36820        0.87890
C          1.88590        1.52900       -0.43880
N          2.34470        1.65260       -1.49260
N         -1.04330        2.03370        0.43440
C         -1.10900        2.71920       -0.84880
C         -2.24680        1.87810       -0.34580
H          1.39020        2.30290        1.43830
H          1.78870        0.56920        1.42260
H         -1.17260        3.80230       -0.79900
H         -0.50860        2.32700       -1.66350
H         -2.41020        0.90870       -0.80810
H         -3.13380        2.35950        0.05460
