17
gdb 19373	4.23774	1.61364	1.44072	1.9262	67.41	-0.2242	0.0619	0.2862	907.5725	0.142443	-363.76228	-363.755087	-363.754143	-363.793691	28.031
O          0.14390        1.38150        0.13250
C          0.02040       -0.01900       -0.08500
C         -1.39910       -0.49000       -0.02100
C         -2.08760       -0.95690        1.24030
C         -1.97870       -1.88330        0.05900
N         -2.90440       -1.65970       -1.12320
C         -3.82280       -0.53640       -0.85100
C         -2.41040       -0.23500       -1.15960
H         -0.27070        1.57700        0.97950
H          0.43650       -0.19270       -1.08400
H          0.63100       -0.59600        0.62830
H         -1.39770       -1.22440        2.03670
H         -3.01870       -0.53860        1.60520
H         -1.48990       -2.84780        0.11620
H         -4.53280       -0.39970       -1.66210
H         -4.25220       -0.38750        0.13280
H         -2.10040        0.21660       -2.09700
