15
gdb 15586	2.8478	2.14392	1.47176	3.9069	61.06	-0.2797	0.0123	0.2919	861.6633	0.118998	-399.809188	-399.801545	-399.800601	-399.841616	26.894
C         -0.08520        1.57100       -0.12740
C          0.09900        0.07270       -0.01190
O          0.97950       -0.39570       -1.02530
C          1.38700       -1.67120       -0.62010
O          1.37300       -1.69380        0.81170
C          0.79850       -0.47820        1.25760
C          1.83710        0.42830        1.78650
N          2.63830        1.14430        2.21080
H          0.87470        2.08670       -0.05300
H         -0.54200        1.81270       -1.09000
H         -0.74360        1.93590        0.66630
H         -0.87150       -0.44410       -0.08930
H          0.69860       -2.45360       -0.97770
H          2.39990       -1.85310       -0.99260
H          0.08400       -0.69220        2.05900
