16
gdb 15871	2.55918	2.07977	1.27485	4.4873	66.18	-0.2469	0.0093	0.2562	950.6158	0.129961	-379.901045	-379.892904	-379.89196	-379.93369	29.333
C          0.00520        1.48460       -0.01240
N         -0.03260        0.04460        0.12520
C         -1.29160       -0.62480        0.50810
C         -0.46030       -1.66420        1.30360
O         -0.18510       -2.86840        0.65590
C          0.67850       -0.57890        1.25650
C          2.04310       -1.01700        0.97900
N          3.11720       -1.37590        0.74850
H          1.02970        1.80900       -0.21860
H         -0.62090        1.78710       -0.85740
H         -0.35350        2.01240        0.89070
H         -1.93350       -0.01520        1.16510
H         -1.88700       -1.00580       -0.32770
H         -0.81470       -1.91830        2.30210
H          0.16440       -2.67360       -0.22220
H          0.67470        0.03390        2.17360
