20
gdb 8176	2.66006	2.49861	1.70986	1.2304	74.31	-0.2577	0.0793	0.337	856.7096	0.178461	-349.001871	-348.994377	-348.993433	-349.032915	30.394
C         -0.05990        1.51050        0.04330
C          0.01720        0.00180        0.04340
C          0.96220       -0.80360       -0.90250
C          0.71980       -1.93930        0.13190
C          0.67240       -0.81510        1.20350
C         -0.77500       -2.23590       -0.08810
C         -1.30630       -0.76520       -0.14770
O         -2.20010       -0.42020        0.90080
H          0.92080        1.96040        0.22950
H         -0.42300        1.88710       -0.92080
H         -0.75060        1.85940        0.81700
H          0.64500       -0.96780       -1.93830
H          1.98430       -0.41720       -0.88170
H          1.39390       -2.79170        0.21970
H          1.66500       -0.43510        1.45840
H          0.07920       -0.97800        2.10630
H         -0.96450       -2.79620       -1.00910
H         -1.22910       -2.77640        0.74850
H         -1.75950       -0.52870       -1.12210
H         -3.00500       -0.93490        0.79050
