16
gdb 12881	2.63864	2.48255	1.81913	2.341	59.9	-0.2322	0.0781	0.3103	796.2412	0.129912	-420.844852	-420.837471	-420.836527	-420.876122	27.932
C         -0.07960        1.48670       -0.03640
C          0.07710       -0.00190        0.06200
O         -1.08260       -0.76790       -0.26460
C         -1.36020       -1.53310        0.90040
O         -0.11200       -1.88150        1.45850
C          0.73870       -0.79490        1.16540
C          1.33730       -0.78790       -0.24100
O          1.28850       -1.90030       -1.06030
H          0.85380        1.98480        0.24250
H         -0.32830        1.78370       -1.06050
H         -0.87210        1.84590        0.62880
H         -1.95380       -0.93420        1.61170
H         -1.89860       -2.44040        0.61440
H          1.24450       -0.35300        2.01830
H          2.25810       -0.22340       -0.36510
H          0.35210       -2.06240       -1.23870
