15
gdb 9335	3.40343	1.19007	0.91155	2.8607	60.45	-0.2494	-0.0737	0.1757	1201.9121	0.117543	-436.965395	-436.956693	-436.955749	-436.999862	29.584
O         -0.12360        1.49280       -0.49590
C         -0.11190        0.10520       -0.18690
C         -1.50800       -0.40650        0.16230
N         -2.43800       -0.07560       -0.89650
C         -3.40460       -0.90740       -1.33290
O         -3.65770       -2.02080       -0.90430
C         -4.22420       -0.32230       -2.48710
O         -4.03920        0.77280       -2.95160
H         -0.27390        1.98160        0.32030
H          0.25150       -0.39510       -1.08980
H          0.58340       -0.12630        0.63220
H         -1.51260       -1.49260        0.29090
H         -1.83680        0.03590        1.11530
H         -2.33820        0.81710       -1.36150
H         -5.00890       -1.01720       -2.84650
