18
gdb 13102	4.13485	1.20023	0.99075	2.3962	72.33	-0.2314	0.0261	0.2575	1208.8317	0.152989	-381.106237	-381.097266	-381.096322	-381.140614	31.67
C         -0.02220        1.34800        0.48600
C         -0.16320        0.38530       -0.69080
N         -1.56000        0.01210       -0.88400
C         -1.82480       -1.05340       -1.50570
N         -1.12600       -2.08200       -2.12690
C         -2.28500       -3.00070       -2.11210
C         -3.15750       -1.77200       -1.69920
O         -3.92710       -1.91440       -0.53590
H          1.02000        1.65500        0.61950
H         -0.63090        2.24150        0.32020
H         -0.36460        0.87720        1.41270
H          0.21390        0.86700       -1.60500
H          0.47660       -0.49840       -0.52180
H         -0.15950       -2.33200       -1.97240
H         -2.49700       -3.46930       -3.07660
H         -2.25860       -3.75190       -1.31690
H         -3.75760       -1.38220       -2.53130
H         -3.68790       -1.17270        0.03420
