16
gdb 16399	3.64747	2.269	1.79166	3.7632	65.76	-0.2398	0.027	0.2668	767.7267	0.134284	-379.903735	-379.897559	-379.896614	-379.93394	24.597
N         -0.08880        1.26670       -0.25230
C         -0.04610        0.03910        0.04520
O          1.11550       -0.60270        0.36690
C          1.05840       -1.98290        0.77870
C         -0.33580       -2.56410        0.60990
C         -0.93280       -2.14230       -0.75270
C         -1.26670       -0.84150        0.02420
N         -1.25810       -1.61270        1.32770
H          0.84600        1.67720       -0.19180
H          1.79200       -2.52710        0.17370
H          1.35670       -2.02800        1.83150
H         -0.36470       -3.60930        0.92750
H         -0.28220       -2.08600       -1.63070
H         -1.83710       -2.70670       -0.99230
H         -2.15530       -0.25700       -0.20500
H         -2.16820       -2.06400        1.41130
