17
gdb 10275	2.48065	1.96832	1.11273	1.9995	69.56	-0.2227	-0.0171	0.2056	1055.3517	0.141139	-397.215395	-397.205729	-397.204785	-397.250562	33.415
C          1.37670       -0.65830        0.08940
N          0.03220       -0.10370       -0.02570
C         -1.17110       -0.74040       -0.08380
N         -2.31910       -0.16630       -0.18620
C         -2.36400        1.27860       -0.24690
C         -1.17350       -2.26750       -0.02320
N         -2.42040       -2.77940       -0.08970
O         -0.15530       -2.93270        0.07410
H          2.07310        0.18450        0.10400
H          1.50200       -1.23960        1.00480
H          1.62340       -1.30950       -0.75120
H         -0.02050        0.89900       -0.06920
H         -1.93910        1.75210        0.65470
H         -1.81590        1.68160       -1.11550
H         -3.40150        1.61070       -0.33230
H         -3.19090       -2.13280       -0.16870
H         -2.54570       -3.77570       -0.05820
