15
gdb 16615	3.48432	2.14945	1.47477	3.4189	67.61	-0.2333	-0.0531	0.1802	844.6048	0.119534	-362.666033	-362.65899	-362.658046	-362.697313	26.337
C          0.04120        1.49970        0.03390
C         -0.02920        0.01080       -0.03830
C         -0.10660       -0.79290       -1.11120
C         -0.06280       -2.23950       -0.72560
N          1.23260       -2.59030       -0.07940
C          0.02740       -2.27580        0.74780
C          0.01150       -0.82730        1.20460
O         -0.00110       -0.42350        2.34350
H          0.99670        1.81930        0.46540
H         -0.06560        1.95900       -0.95180
H         -0.74030        1.88950        0.69450
H         -0.13360       -0.46180       -2.14340
H         -0.59070       -2.99250       -1.29920
H          1.33850       -3.60590       -0.08330
H         -0.41180       -3.04530        1.37040
