12
gdb 4696	6.77986	1.34463	1.12374	5.2236	66.53	-0.2207	-0.0218	0.1989	962.1383	0.08689	-373.760273	-373.753457	-373.752513	-373.791185	25.102
N          0.05190        1.35290        0.13790
C         -0.00940       -0.02060        0.03620
N         -1.12400       -0.73180        0.02570
C         -0.72210       -2.03710        0.00280
C          0.65080       -2.13270       -0.01220
N          1.09780       -0.80650        0.00940
C          1.52560       -3.23170       -0.05480
N          2.25840       -4.13090       -0.08780
H          0.75890        1.80240       -0.42750
H         -0.85900        1.77010        0.00320
H         -1.43060       -2.85050       -0.01580
H          2.05750       -0.51370        0.08830
