20
gdb 10063	2.55776	1.14175	0.8257	1.5226	80.21	-0.2428	0.0609	0.3037	1426.3687	0.174214	-348.984377	-348.973711	-348.972766	-349.021832	36.146
C         -1.51120       -0.23110        0.01440
C          0.01000       -0.09400        0.08780
C          0.73640       -0.62480       -1.16950
C          2.23660       -0.28740       -1.13750
O          2.36400        1.12650       -1.13740
C          0.55520       -2.06510       -1.34700
C          0.42610       -3.25640       -1.47240
C          0.26140       -4.69440       -1.63580
H         -1.91850        0.33570       -0.83060
H         -1.80750       -1.27690       -0.11180
H         -1.98340        0.14780        0.92600
H          0.29190        0.95570        0.21050
H          0.39200       -0.63440        0.96290
H          0.32030       -0.10430       -2.04450
H          2.68880       -0.73530       -0.23900
H          2.72600       -0.73350       -2.01540
H          3.29600        1.34510       -1.05140
H          1.16690       -5.15500       -2.04640
H          0.04730       -5.18380       -0.67920
H         -0.56450       -4.92620       -2.31760
