19
gdb 15773	3.28645	1.37276	1.09965	1.8279	77.58	-0.2264	0.0609	0.2873	1131.8658	0.163348	-327.857748	-327.848792	-327.847848	-327.891478	33.169
C          0.22220        1.57240       -0.01170
C          0.06190        0.04530       -0.08380
C          0.66910       -0.60450        1.18250
C          0.81050       -2.05190        1.09740
C          0.95810       -3.24220        1.02400
N         -1.29480       -0.48360       -0.25360
C         -2.46140        0.24300        0.22680
C         -2.20170        0.08140       -1.23420
H          1.28450        1.83350       -0.03910
H         -0.25730        2.07660       -0.85540
H         -0.19350        1.98330        0.91440
H          0.62660       -0.31960       -0.95010
H          1.65150       -0.15490        1.37420
H          0.03790       -0.34120        2.04160
H          1.07240       -4.29550        0.95920
H         -3.21500       -0.35950        0.72700
H         -2.33890        1.24300        0.63680
H         -1.90670        0.97500       -1.78210
H         -2.76280       -0.63990       -1.82300
