15
gdb 2158	3.66057	3.0529	1.77911	4.1989	56.53	-0.2629	0.015	0.2779	707.4326	0.126345	-345.710017	-345.703435	-345.702491	-345.740519	24.047
C         -0.36310        1.47700        0.02980
C          0.13500        0.03600       -0.02780
C          1.03260       -0.35060       -1.21020
C          1.87360       -1.48860       -0.61630
O          1.97960       -1.19880        0.78890
C          1.00340       -0.33370        1.17790
O          0.89190        0.04100        2.30920
H          0.47070        2.18160       -0.05360
H         -1.06620        1.68340       -0.78220
H         -0.86300        1.66210        0.98360
H         -0.72690       -0.64610        0.01140
H          0.48380       -0.65890       -2.10240
H          1.67600        0.49350       -1.48230
H          1.38780       -2.46470       -0.73580
H          2.88610       -1.55110       -1.02000
