20
gdb 16488	2.70844	2.52014	1.71176	0.2886	78.22	-0.2377	0.0977	0.3353	867.6539	0.177605	-311.828648	-311.821148	-311.820204	-311.859755	30.07
C         -0.01860        1.60090       -0.06350
C          0.09190        0.08230        0.00690
C          1.12620       -0.70000       -0.86040
C          2.51480       -0.13040       -0.46110
C          2.24380       -0.73300        0.91470
C          1.26010       -1.72820        0.33630
C          0.73460       -0.61630        1.21220
C          0.19330       -0.69840        2.60920
H          0.93400        2.09530        0.14680
H         -0.35610        1.92650       -1.05440
H         -0.74700        1.97010        0.66740
H         -0.89710       -0.36540       -0.15610
H          0.90220       -0.94360       -1.89760
H          3.31940       -0.66940       -0.97020
H          2.68520        0.94750       -0.56000
H          2.94640       -0.89650        1.72300
H          1.18890       -2.80410        0.40860
H          0.77450       -1.39880        3.21920
H          0.22370        0.27620        3.11090
H         -0.84790       -1.04190        2.61320
