20
gdb 7692	4.18553	1.4867	1.37898	1.5599	75.46	-0.2278	0.0877	0.3155	1015.7779	0.175372	-348.974477	-348.96599	-348.965046	-349.006632	32.601
C          0.04110        1.47710       -0.07260
C          0.01550       -0.02950        0.08940
O          0.96530       -0.67210       -0.81930
C          1.74950       -1.11310        0.29000
C          0.76180       -0.57690        1.30540
C          1.00560       -2.07710        1.17310
C         -0.02960       -3.02680        0.60630
C          1.83680       -2.64300        2.31190
H          1.04700        1.86970        0.10310
H         -0.26780        1.75350       -1.08510
H         -0.64750        1.94780        0.63820
H         -0.99840       -0.41800       -0.07160
H          2.82950       -1.05060        0.20110
H          0.92280       -0.03630        2.23020
H         -0.45620       -2.64380       -0.32280
H          0.42910       -3.99660        0.38190
H         -0.84270       -3.20270        1.32000
H          1.20650       -2.88360        3.17580
H          2.34620       -3.56290        2.00400
H          2.59990       -1.93250        2.64740
