13
gdb 13649	5.82981	0.91972	0.8378	4.6633	73.89	-0.2824	-0.0581	0.2244	1289.4624	0.094169	-361.428584	-361.420699	-361.419755	-361.461447	27.371
C         -0.12980        1.50070       -0.13310
C         -0.01840        0.01260        0.05100
O          1.26500       -0.58090       -0.12110
C          0.69040       -0.62050        1.19320
C          1.33410        0.15580        2.21410
C          1.86440        0.78250        3.10140
C          2.46270        1.49690        4.09840
N          2.96910        2.10740        4.94730
H          0.69370        2.02180        0.35940
H         -0.10960        1.74680       -1.19930
H         -1.07620        1.86440        0.27990
H         -0.83240       -0.57920       -0.37180
H          0.36660       -1.61000        1.51490
