13
gdb 21519	3.49468	1.88141	1.22462	5.9431	64.	-0.2283	-0.0285	0.1997	900.4481	0.097315	-394.811876	-394.804731	-394.803786	-394.843206	26.021
N          0.07080        1.37790        0.15570
C         -0.02640        0.00670        0.04460
C         -1.13730       -0.84660        0.01960
C         -2.53540       -0.48350        0.00870
O         -3.46470       -1.26440       -0.01870
C         -0.56560       -2.15260       -0.01800
N          0.74860       -2.13110       -0.02120
N          1.05910       -0.79390        0.01830
H          0.84970        1.80120       -0.32950
H         -0.79100        1.86870       -0.03280
H         -2.73200        0.61750        0.02480
H         -1.10080       -3.08970       -0.04880
H          2.02620       -0.52150        0.07230
