16
gdb 18800	3.24369	3.0494	2.36028	1.6121	67.33	-0.2334	0.0035	0.2369	668.1943	0.133576	-346.560562	-346.555256	-346.554312	-346.589503	23.092
C         -0.03560        1.55910        0.08430
C          1.52670        1.47000       -0.00910
C          2.01910        1.24610        1.39330
C          1.54790        0.14180        1.98120
C          0.81170       -0.75970        1.02920
O          1.79300       -1.08480       -0.02950
C          1.30830        0.04030       -0.74070
C         -0.05950        0.03330       -0.03760
H         -0.45080        2.04020        0.97310
H         -0.46860        2.00690       -0.81620
H          2.05380        2.25120       -0.55640
H          2.67160        1.96320        1.88000
H          1.76160       -0.15840        3.00010
H          0.38230       -1.66240        1.46480
H          1.50670        0.00710       -1.81340
H         -0.93440       -0.50530       -0.40280
