16
gdb 19364	4.41951	1.66337	1.49476	3.2199	63.61	-0.2471	0.0445	0.2917	888.5621	0.128516	-383.645648	-383.638442	-383.637498	-383.677172	27.459
C         -0.19290        1.51920       -0.08680
C          0.05130        0.00980        0.05460
C          0.83320       -0.54720       -1.09060
O          0.21050       -0.72010       -2.36540
C          0.87180       -1.84110       -1.77530
C          2.42500       -1.67680       -2.02260
O          2.63530       -0.47320       -2.75670
C          2.39680       -0.37750       -1.35430
H          0.75130        2.07150       -0.13630
H         -0.75400        1.73390       -1.00060
H         -0.76220        1.90260        0.76450
H          0.59290       -0.19840        0.98640
H         -0.90380       -0.52340        0.11530
H          0.31140       -2.75640       -1.62720
H          3.18030       -2.45150       -2.06250
H          3.12750        0.12920       -0.73550
