20
gdb 17976	2.51273	2.29984	1.40916	1.116	70.89	-0.2389	0.0765	0.3155	938.294	0.1794	-386.127688	-386.120043	-386.119099	-386.159556	29.448
C          0.00390        1.50080        0.19650
C          1.40180        2.11450        0.00200
O          2.20260        1.48040       -0.97590
C          1.90710        1.76310       -2.32960
C          0.67360        1.03490       -2.89240
C          0.46030       -0.38500       -2.32800
O         -0.47300       -0.45160       -1.26460
C         -0.04880       -0.03090        0.01970
H         -0.32700        1.76050        1.20960
H         -0.73150        1.93940       -0.48510
H          1.32160        3.19340       -0.20860
H          1.97120        2.00590        0.93180
H          1.81420        2.85060       -2.48290
H          2.79680        1.43220       -2.87690
H         -0.24680        1.60200       -2.72160
H          0.79830        0.97760       -3.98070
H          0.02930       -1.02160       -3.10700
H          1.42210       -0.82660       -2.02820
H          0.92300       -0.47960        0.27340
H         -0.79670       -0.44710        0.70180
