18
gdb 16569	2.93934	2.6176	2.15721	1.8867	65.54	-0.2533	0.0768	0.3301	742.46	0.157919	-384.953126	-384.947112	-384.946168	-384.982857	25.198
C         -0.03300        1.55890       -0.04360
C          1.45860        2.00930       -0.05460
C          2.25830        0.68700        0.03280
C          1.34070       -0.31110       -0.68880
C          0.03390        0.01540        0.04920
O          0.16590       -0.44950        1.39930
C          1.21030        0.18880        2.09380
O          2.42390        0.23230        1.38260
H         -0.60770        1.98110        0.78460
H         -0.54120        1.84280       -0.96970
H          1.71220        2.52320       -0.98630
H          1.71480        2.68230        0.76750
H          3.26830        0.76510       -0.37310
H          1.26410       -0.08370       -1.75800
H          1.65460       -1.34750       -0.55380
H         -0.85590       -0.48020       -0.34260
H          0.90400        1.21020        2.37860
H          1.39370       -0.39630        2.99810
