13
gdb 3429	4.9129	2.9645	2.13238	4.5061	53.25	-0.263	0.0102	0.2731	606.9522	0.10391	-344.486202	-344.480752	-344.479808	-344.51539	20.706
O          0.01780        0.02340        0.20330
C          0.03590        1.20310        0.00740
O         -1.11390        1.93150       -0.16060
C         -0.83690        3.25320       -0.65060
C          0.65810        3.47150       -0.48220
C          1.18910        3.27280        0.90180
C          1.21200        2.12210       -0.09100
H         -1.13400        3.30300       -1.70440
H         -1.44830        3.95860       -0.07910
H          1.17130        4.12350       -1.17760
H          2.15050        3.71310        1.13890
H          0.49330        3.22410        1.73360
H          2.15190        1.71160       -0.43180
