14
gdb 2051	4.93725	2.70448	1.81524	3.1864	60.36	-0.2516	0.0079	0.2595	678.3845	0.114916	-324.592221	-324.585863	-324.584919	-324.62347	22.802
N         -0.12740        1.29230       -0.34500
C         -0.01500        0.09240        0.04450
C         -1.21140       -0.83450        0.00400
C         -1.10790       -1.99500        0.94970
C          0.07280       -2.40730        1.39310
C          1.33930       -1.72250        0.98760
O          1.17470       -0.38640        0.50080
H          0.77130        1.77220       -0.26330
H         -2.09890       -0.22570        0.19230
H         -1.32310       -1.20430       -1.02630
H         -2.02500       -2.49940        1.23760
H          0.17560       -3.26400        2.05180
H          2.02620       -1.64120        1.83800
H          1.86290       -2.30630        0.21470
