12
gdb 10253	3.32207	1.75251	1.17727	5.3061	53.61	-0.2648	-0.0507	0.2141	923.8636	0.082512	-451.863514	-451.855572	-451.854628	-451.89638	27.181
N         -0.02450        1.35210        0.12060
C          0.03600       -0.00130       -0.07880
O          1.03880       -0.58700       -0.41350
N         -1.20610       -0.68650        0.12050
C         -1.10900       -2.08680        0.38760
O         -2.04170       -2.82440        0.50330
C         -2.44700       -0.03240       -0.07680
O         -3.52060       -0.48610        0.19140
H          0.86950        1.81530        0.06160
H         -0.68900        1.74840        0.76490
H         -0.05300       -2.38180        0.46540
H         -2.30150        0.96030       -0.53790
