13
gdb 5497	3.65681	1.91053	1.25665	1.5644	68.85	-0.2025	-0.0046	0.198	891.952	0.095766	-361.452656	-361.445437	-361.444493	-361.483816	27.488
N          0.07930        1.38320        0.15910
C          0.01360       -0.00290        0.04460
C         -1.06990       -0.82720        0.02160
O         -0.66710       -2.14080       -0.02620
C          0.67480       -2.14890       -0.03350
C          1.17230       -0.87420        0.00570
C          2.51840       -0.45150       -0.00160
C          3.64950       -0.03520       -0.01700
H          0.95190        1.75960       -0.18780
H         -0.70720        1.87160       -0.24530
H         -2.13280       -0.66040        0.03900
H          1.15530       -3.11210       -0.07360
H          4.65340        0.31000       -0.01950
