20
gdb 15439	4.65195	0.96008	0.87733	0.9795	73.33	-0.2428	0.0905	0.3334	1385.8177	0.174848	-386.098064	-386.088516	-386.087572	-386.133155	33.121
C          0.36200        1.35260       -0.08820
O          0.48120       -0.04790       -0.07480
C          0.30210       -0.59460        1.21830
C          0.39450       -2.09390        1.12320
C          1.75770       -2.75920        1.07510
C          0.87760       -2.89840        2.29230
O          1.20040       -2.20560        3.45730
C          2.17690       -2.86630        4.23650
H          1.11360        1.83580        0.55750
H          0.51600        1.68630       -1.11750
H         -0.63450        1.68440        0.24670
H          1.06190       -0.20980        1.91460
H         -0.68210       -0.29840        1.62070
H         -0.38900       -2.54800        0.52390
H          1.90560       -3.61440        0.42520
H          2.61590       -2.10160        1.16640
H          0.40670       -3.86680        2.47160
H          1.83040       -3.85920        4.56140
H          3.11890       -2.99320        3.68430
H          2.35680       -2.24850        5.11940
