18
gdb 10685	2.83433	1.82622	1.33919	1.6644	73.67	-0.2606	0.0267	0.2873	982.4492	0.150813	-347.752626	-347.743748	-347.742804	-347.785664	33.202
C          0.45250        1.55610       -0.15210
C          0.01830        0.09380        0.04430
C          0.25710       -0.72430       -1.22990
C          0.72550       -0.48630        1.27480
C          1.27920       -1.85710        1.32450
O          2.13810       -0.73890        1.12310
C          0.35240        0.12460        2.53390
C          0.00860        0.63780        3.56530
H          1.52270        1.60850       -0.37650
H         -0.09380        2.00930       -0.98460
H          0.26430        2.15140        0.74530
H         -1.05490        0.08130        0.27440
H          1.32860       -0.83990       -1.42050
H         -0.19570       -1.71850       -1.17230
H         -0.18430       -0.21180       -2.08960
H          1.37070       -2.34870        2.29150
H          1.16190       -2.51940        0.47050
H         -0.28260        1.08840        4.48180
