18
gdb 14512	3.55845	1.80497	1.47818	1.5156	67.45	-0.2379	0.067	0.3048	900.1403	0.15294	-384.858795	-384.850975	-384.850031	-384.890719	30.065
C         -0.13780        1.61830        0.05100
C         -0.03410        0.09590        0.02970
C         -1.42380       -0.52060       -0.16040
O         -2.00800       -0.14890       -1.40720
C          1.13400       -0.61590       -0.74470
C          2.15910       -0.12920        0.30700
C          0.90230       -0.66980        1.02730
O          0.92460       -1.82170        0.09010
H          0.82200        2.13410        0.00090
H         -0.74510        1.94170       -0.79870
H         -0.64840        1.94910        0.96290
H         -1.37240       -1.60690       -0.05130
H         -2.10020       -0.12760        0.60750
H         -1.56650       -0.65600       -2.09540
H          1.26920       -0.76960       -1.81750
H          3.03420       -0.77230        0.40120
H          2.40690        0.92950        0.37520
H          0.75170       -0.89150        2.08540
