18
gdb 10980	2.89463	2.41349	1.75526	1.0735	71.72	-0.2259	0.0146	0.2405	821.819	0.153827	-347.769856	-347.762526	-347.761581	-347.800743	29.608
C         -0.17880        1.53490        0.02570
C          0.01830        0.02520        0.02900
C          1.18630       -0.60410       -0.83520
C          2.15280       -0.20870        0.33320
C          0.88640       -0.61040        1.17350
O          0.66050       -0.20010        2.48450
C          0.77560       -2.10000        0.79720
C          0.97480       -2.09100       -0.52350
H          0.75270        2.09900        0.11560
H         -0.67150        1.85050       -0.90050
H         -0.82280        1.82830        0.86130
H         -0.94560       -0.47300       -0.11040
H          1.36930       -0.29870       -1.86380
H          3.05200       -0.81660        0.45810
H          2.39310        0.85530        0.38040
H          1.28840       -0.65070        3.05930
H          0.55520       -2.91020        1.47870
H          0.97280       -2.90430       -1.23560
