14
gdb 4596	5.65836	1.56738	1.23677	4.0583	68.86	-0.2238	-0.0582	0.1656	928.6565	0.108982	-378.785927	-378.779092	-378.778148	-378.816951	25.533
C         -0.00020        1.53690        0.02950
C         -0.03650        0.03610        0.01630
C         -1.18120       -0.67980       -0.15400
N         -1.14000       -2.04550       -0.15500
C          0.03030       -2.78990        0.01150
O          0.03090       -4.00800        0.00540
C          1.19460       -1.91450        0.18530
N          1.16400       -0.61870        0.18770
H          0.65360        1.91580       -0.76310
H         -0.99670        1.96340       -0.11290
H          0.40100        1.90660        0.97900
H         -2.15440       -0.22490       -0.29320
H         -1.98450       -2.58710       -0.28060
H          2.14950       -2.41760        0.32200
