14
gdb 20311	5.98925	1.38883	1.13522	2.5495	68.13	-0.2351	0.026	0.2612	985.6551	0.10846	-341.572035	-341.564836	-341.563892	-341.604843	26.227
C         -0.23860       -0.86470       -1.00320
C         -0.08110        0.07190       -0.26680
C          0.14220        1.21540        0.61300
C          1.46830        1.89510        0.38510
C          2.05370        2.98980        0.99330
C          3.29620        3.13600        0.34210
N          3.47900        2.21160       -0.59740
N          2.35430        1.47360       -0.54820
H         -0.40210       -1.69680       -1.64290
H         -0.67000        1.94120        0.47600
H          0.07380        0.88640        1.65820
H          1.64070        3.58970        1.78840
H          4.06280        3.87610        0.52000
H          2.23360        0.69070       -1.17080
