18
gdb 19659	4.3761	1.98239	1.86647	1.7706	69.92	-0.2364	0.0899	0.3263	793.2537	0.156165	-347.762598	-347.756404	-347.75546	-347.792573	25.751
C         -0.21650        1.63000       -0.04220
C          0.03700        0.12920       -0.00160
C          1.09530       -0.57520       -0.90680
C          2.41270        0.12460       -0.52050
C          2.36570       -0.38730        0.93250
O          2.50010       -1.82670        0.71440
C          1.16370       -1.72680        0.21570
C          0.80240       -0.55410        1.14720
H          0.68430        2.21780        0.15420
H         -0.61030        1.93790       -1.01730
H         -0.95750        1.91070        0.71440
H         -0.91930       -0.39800       -0.11300
H          0.89920       -0.78520       -1.95700
H          3.29270       -0.27480       -1.02830
H          2.38560        1.20920       -0.63800
H          3.04460        0.00810        1.68640
H          0.62580       -2.66490        0.08920
H          0.43320       -0.67550        2.16450
