8
gdb 59	11.40916	4.14704	3.0415	3.7167	38.29	-0.2629	-0.0277	0.2352	390.4619	0.054731	-245.997884	-245.992256	-245.991312	-246.026404	18.527
N         -0.04130        1.33650        0.00880
C          0.06570       -0.02250        0.00110
O          1.12420       -0.61780       -0.01160
C         -1.22280       -0.70870        0.00970
C         -2.26320       -1.31100        0.01640
H          0.80410        1.88310        0.00370
H         -0.93420        1.79720        0.01950
H         -3.17500       -1.85700        0.02230
