18
gdb 17354	4.33494	1.25577	1.07617	3.0897	69.01	-0.2496	0.0751	0.3248	1124.8295	0.152173	-384.899539	-384.891059	-384.890115	-384.932897	31.214
C         -0.24630        1.48920       -0.06100
C         -0.07310        0.00030        0.09840
O          1.22810       -0.54650       -0.14640
C          0.68790       -0.65020        1.17920
C          1.40280        0.09130        2.25880
C          0.86950        0.03870        3.68280
C          2.15090       -0.66520        3.32320
O          2.15740       -2.05870        3.21850
H          0.55930        2.04890        0.41820
H         -0.25770        1.75620       -1.12310
H         -1.19930        1.81010        0.37400
H         -0.87860       -0.58980       -0.34650
H          0.39810       -1.66280        1.45770
H          1.85570        1.02400        1.94270
H          0.90270        0.93810        4.28770
H          0.00580       -0.59600        3.85510
H          3.08680       -0.22930        3.67200
H          2.09280       -2.42410        4.10680
