15
gdb 20373	6.22578	1.48209	1.32405	3.4169	66.45	-0.2527	0.0074	0.2601	918.3321	0.12172	-358.846983	-358.840397	-358.839453	-358.880003	24.086
C         -0.21550        1.31840       -0.27740
C          1.20830        1.07280        0.16830
C          0.22710       -0.06560        0.11110
N         -0.25620       -0.68280        1.31500
C         -0.54480       -0.16290        2.52660
N         -0.96630       -1.10800        3.35010
C         -0.91480       -2.21870        2.56950
N         -0.49270       -2.01890        1.33020
H         -0.87590        1.84230        0.40480
H         -0.41230        1.50930       -1.32610
H          2.00100        1.09300       -0.57080
H          1.50090        1.43240        1.14860
H          0.33790       -0.81780       -0.65770
H         -0.43750        0.88420        2.76450
H         -1.19430       -3.20160        2.91800
