16
gdb 1867	5.34973	2.07798	1.59924	3.896	61.28	-0.2359	0.0378	0.2737	781.0318	0.138466	-325.835955	-325.829144	-325.8282	-325.866649	25.5
C         -0.06390        1.56940       -0.00010
C          0.06180        0.04920        0.00720
C          0.80400       -0.53410       -1.21990
C          1.48890       -1.80110       -0.68640
C          1.65960       -1.53620        0.81400
O          2.32960       -2.16450        1.60330
N          0.88350       -0.44360        1.10500
H          0.92430        2.03770       -0.04710
H         -0.64660        1.89750       -0.86690
H         -0.57340        1.93310        0.89860
H         -0.94940       -0.38600        0.06440
H          0.12510       -0.71660       -2.05570
H          1.55740        0.18770       -1.55370
H          0.85650       -2.69000       -0.79680
H          2.45060       -2.02760       -1.14970
H          0.72670       -0.18410        2.06670
