14
gdb 14605	15.33229	0.5588	0.54838	1.9185	71.	-0.2663	-0.0677	0.1986	1851.768	0.103531	-382.524927	-382.515777	-382.514833	-382.561633	28.893
O         -0.16640       -0.07480       -0.10690
C         -0.02060        1.11820       -0.09410
C          1.31760        1.82510       -0.15500
C          1.33290        2.92310       -1.24320
C          2.55870        3.70470       -1.25060
C          3.57900        4.35090       -1.25400
C          4.80600        5.10660       -1.23470
O          5.07180        5.99990       -2.00530
H         -0.89850        1.80420       -0.02650
H          1.48960        2.29560        0.82230
H          2.10550        1.08710       -0.32040
H          1.19370        2.46870       -2.23250
H          0.48020        3.60090       -1.10060
H          5.51330        4.80150       -0.43680
