15
gdb 19749	3.7288	2.34078	2.21623	2.5413	63.15	-0.24	-0.0214	0.2187	692.5573	0.122369	-362.670115	-362.664623	-362.663679	-362.699523	22.566
O         -0.00180        0.00840        0.00890
C         -0.01940        1.20810        0.00960
C         -1.18660        2.16020        0.03290
C         -0.68640        3.35330        0.79790
C          0.75500        3.07550        1.23370
C          1.14340        2.22470        0.00060
C          0.64120        3.13200       -1.13540
N         -0.75620        3.40220       -0.66870
H         -2.22060        1.85110       -0.03540
H         -1.35670        4.00120        1.34940
H          1.34830        3.99030        1.32660
H          0.81390        2.51870        2.17310
H          2.14430        1.80740       -0.05260
H          1.18400        4.07750       -1.22080
H          0.61490        2.64290       -2.11320
