17
gdb 14573	13.40017	0.60193	0.58433	3.4392	75.47	-0.27	0.0327	0.3027	1782.4476	0.140463	-326.716451	-326.707233	-326.706288	-326.75121	31.904
C         -0.01640       -1.24200       -0.00430
C         -0.03430       -0.04030        0.00240
C         -0.02020        1.41710        0.01040
C          1.40660        2.00190       -0.00090
C          1.40600        3.53230        0.00770
C          2.83610        4.10790       -0.00360
C          2.85440        5.56910        0.00470
N          2.84910        6.72460        0.01090
H         -0.01570       -2.30370       -0.00990
H         -0.57610        1.79350       -0.85850
H         -0.55810        1.78360        0.89480
H          1.95400        1.62130        0.86950
H          1.93600        1.63110       -0.88650
H          0.86070        3.91460       -0.86280
H          0.87860        3.90480        0.89340
H          3.39680        3.74880        0.86750
H          3.37890        3.75880       -0.89000
