14
gdb 5298	4.95035	1.68334	1.2661	1.9881	64.33	-0.2439	-0.0463	0.1976	901.8621	0.108485	-378.786426	-378.779468	-378.778524	-378.817872	25.229
C         -0.01790        1.51270        0.00910
C          0.07550        0.00360        0.00270
O          1.11410       -0.60690       -0.00870
N         -1.15680       -0.69010        0.01070
C         -1.28560       -2.07570        0.00640
C         -2.62340       -2.31790        0.01730
N         -3.34300       -1.12990        0.02800
C         -2.44690       -0.18580        0.02370
H          0.99450        1.91400        0.00170
H         -0.56090        1.87510       -0.86910
H         -0.54540        1.86850        0.89930
H         -0.41300       -2.70410       -0.00360
H         -3.12640       -3.27240        0.01810
H         -2.64820        0.87390        0.02940
