20
gdb 14514	3.40252	1.79855	1.47046	1.9236	74.43	-0.2338	0.0852	0.319	947.149	0.17622	-348.936017	-348.927952	-348.927007	-348.968314	31.329
C          0.88880       -0.60630        1.21300
C          0.05000        0.00490        0.08130
C         -1.38430       -0.54110        0.01280
C         -2.26520        0.07920        1.09610
C         -2.07420       -0.74190       -1.38340
C         -1.12240       -1.91580       -1.71980
C         -1.63290       -2.06780       -0.26880
O         -2.98880       -1.73160       -0.76640
H          1.88670       -0.15830        1.24270
H          0.42890       -0.45060        2.19360
H          1.01420       -1.68560        1.07360
H         -0.00860        1.09150        0.22190
H          0.57820       -0.14110       -0.86470
H         -2.32870        1.16500        0.95970
H         -3.27200       -0.33580        1.06480
H         -1.84690       -0.09660        2.09270
H         -2.52060        0.00090       -2.04750
H         -1.54650       -2.64050       -2.41470
H         -0.06530       -1.72760       -1.90620
H         -1.55030       -2.91980        0.40830
