22
gdb 10393	2.43776	1.7886	1.31405	1.2763	77.67	-0.2624	0.0717	0.3341	1062.1358	0.19971	-350.195239	-350.185933	-350.184989	-350.229055	34.691
C         -1.75780       -0.30210       -0.30870
C         -0.28270        0.00750       -0.02930
C          0.70870       -0.61470       -1.01820
C          0.49390       -0.12040       -2.44630
O          0.63540        1.29410       -2.46140
C          2.21330       -0.51700       -0.60810
C          2.39260       -2.02090       -0.94930
C          0.84730       -2.17180       -0.99440
H         -2.09980        0.15990       -1.23990
H         -1.93600       -1.38090       -0.38420
H         -2.39300        0.08110        0.49600
H         -0.13160        1.09270       -0.02100
H         -0.02560       -0.35180        0.97530
H          1.23120       -0.59620       -3.11280
H         -0.50440       -0.42410       -2.79920
H          0.52150        1.59980       -3.36560
H          2.81630        0.20580       -1.16230
H          2.33080       -0.31540        0.46070
H          2.85880       -2.18120       -1.92500
H          2.92470       -2.63340       -0.21780
H          0.44050       -2.60040       -0.07370
H          0.42340       -2.72120       -1.84110
