16
gdb 6302	4.28423	1.10373	0.98986	4.9077	65.63	-0.2667	0.0116	0.2783	1168.1608	0.129399	-379.98063	-379.971457	-379.970513	-380.015196	31.818
C         -0.15160        1.63350        0.10190
C         -0.02750        0.09870        0.04320
C          0.77810       -0.47800        1.22420
C          2.26660       -0.14330        1.10000
N          2.98360       -0.31300        2.24520
O          2.77130        0.23060        0.05830
C         -1.35080       -0.52900       -0.01140
N         -2.39660       -1.02060       -0.04220
H          0.84650        2.07430        0.07570
H         -0.72040        2.00870       -0.75200
H         -0.66240        1.94930        1.01650
H          0.51200       -0.16700       -0.87250
H          0.37840       -0.11180        2.17650
H          0.68240       -1.57000        1.24380
H          2.57540       -0.68000        3.08690
H          3.98220       -0.18970        2.20520
