13
gdb 14545	4.92422	1.62404	1.47803	4.1242	58.69	-0.2635	-0.0012	0.2623	830.3486	0.094956	-398.550655	-398.543775	-398.54283	-398.581596	25.635
O         -0.03000        1.36290        0.02470
C         -0.03720       -0.02550        0.01020
C          1.06050       -0.63040        0.72640
N          1.92960       -1.14050        1.29350
C         -1.34460       -0.82830        0.04980
C         -2.36930       -0.04020       -0.75430
O         -1.45260        0.04540       -1.89560
C         -0.51640       -0.78060       -1.21310
H         -0.23080        1.64370       -0.87940
H         -1.53050       -1.62100        0.76050
H         -3.25220       -0.62180       -1.03130
H         -2.65390        0.94560       -0.37690
H          0.06080       -1.50090       -1.78040
