14
gdb 18568	3.8863	2.10033	1.70142	4.0288	56.36	-0.2586	-0.0062	0.2524	762.5758	0.109189	-419.703392	-419.697294	-419.696349	-419.733798	23.084
O         -0.01960        0.31690        0.73970
C          0.04180        1.37810        0.21340
O         -1.00390        2.17800       -0.19350
C         -0.10530        3.23200       -0.68170
C         -0.04690        4.44280        0.23880
C          0.88570        3.96080        1.36810
O          1.82140        3.08060        0.73340
C          1.12470        2.38820       -0.26500
H         -0.29650        3.43420       -1.73440
H          0.40450        5.28090       -0.30140
H         -1.03400        4.74520        0.59440
H          1.45620        4.75860        1.84640
H          0.31890        3.42220        2.14030
H          1.82430        2.01070       -1.01090
