12
gdb 21503	5.23991	1.61822	1.23639	1.2519	56.69	-0.2637	-0.0443	0.2195	883.5053	0.084959	-414.687636	-414.680819	-414.679875	-414.719067	24.486
N         -0.07070        1.32350        0.00770
C          0.05890       -0.02650        0.00130
O          1.12050       -0.62060       -0.01000
C         -1.23810       -0.77380        0.00920
N         -2.39680       -0.15480        0.02100
O         -3.35520       -1.14920        0.02500
C         -2.73840       -2.34610        0.01560
C         -1.39290       -2.18680        0.00530
H          0.76110        1.88890        0.00220
H         -0.97960        1.75570        0.01620
H         -3.39070       -3.20510        0.01780
H         -0.61330       -2.92790       -0.00380
