13
gdb 20614	3.55963	1.94393	1.26719	3.768	69.97	-0.242	-0.0329	0.2092	894.3559	0.095543	-357.621106	-357.613688	-357.612743	-357.653463	26.454
C          0.02210        1.51410        0.11690
C          0.06020        0.02870       -0.00260
C          0.00400       -0.76080       -1.14260
N          0.07890       -2.03230       -0.65090
N          0.17390       -2.03920        0.68300
N          0.16280       -0.79600        1.07640
C         -0.10290       -0.45240       -2.51010
C         -0.19440       -0.18570       -3.68110
H          0.92910        1.88920        0.60130
H         -0.06250        1.97850       -0.86800
H         -0.82880        1.83400        0.72640
H          0.06980       -2.90110       -1.16220
H         -0.27530        0.05460       -4.71250
