20
gdb 7830	3.01202	1.63479	1.13555	2.8397	70.82	-0.2604	0.0732	0.3336	1062.6446	0.17836	-386.159742	-386.151625	-386.150681	-386.191715	31.886
O         -0.10500        1.42980        0.01280
C          0.00500        0.01200        0.00880
C          0.77270       -0.51210        1.22950
C          0.77210       -2.04710        1.27430
C         -0.66050       -2.59840        1.23220
C         -1.42660       -2.07190        0.01140
O         -2.78950       -2.47790        0.01780
C         -1.41740       -0.54450       -0.02180
H          0.78490        1.79510        0.04730
H          0.53250       -0.32120       -0.90310
H          1.80260       -0.13180        1.21390
H          0.29550       -0.10730        2.13120
H          1.34050       -2.43860        0.41950
H          1.28770       -2.40010        2.17340
H         -0.64610       -3.69610        1.21840
H         -1.20850       -2.29660        2.13400
H         -0.92740       -2.44630       -0.90040
H         -2.81120       -3.43960        0.05390
H         -1.96670       -0.16610        0.84890
H         -1.94000       -0.18670       -0.91370
