16
gdb 4162	4.43421	1.22456	1.01599	2.1934	65.22	-0.2403	-0.004	0.2363	1112.8552	0.130248	-416.978754	-416.970551	-416.969607	-417.011832	29.605
O          0.05730        1.33990       -0.18500
C         -0.02480        0.05430        0.39340
C         -1.39110       -0.56500        0.08990
N         -1.64260       -0.60290       -1.39280
C         -1.85760       -2.08600       -1.36720
C         -1.50250       -2.07400        0.10310
N         -1.32300       -2.91600        1.02800
O         -1.51430       -4.22680        0.55760
H         -0.13410        1.20340       -1.12270
H          0.76610       -0.61220        0.01660
H          0.11440        0.16740        1.47280
H         -2.17210       -0.04530        0.65830
H         -2.48070       -0.09830       -1.65700
H         -2.88360       -2.41620       -1.57070
H         -1.17970       -2.64310       -2.02250
H         -1.34800       -4.75390        1.34670
