16
gdb 15899	2.50452	2.14859	1.27621	1.2468	61.58	-0.2364	-0.0395	0.1969	943.8954	0.128125	-420.860586	-420.85216	-420.851216	-420.894003	29.898
C          0.22150        1.03020       -0.40920
O         -0.06770       -0.27070        0.08050
C          0.55410       -0.57200        1.31120
C          0.24630       -2.07100        1.64920
O         -0.86100       -2.62470        1.00560
C          1.67670       -2.48260        1.16350
C          2.03790       -0.99300        1.11060
O          3.05460       -0.37420        0.97730
H          1.29650        1.16700       -0.57480
H         -0.31080        1.13700       -1.35650
H         -0.12960        1.79930        0.29330
H          0.34160        0.19350        2.07060
H          0.12960       -2.22300        2.72590
H         -1.01350       -2.08630        0.21720
H          2.28770       -3.11250        1.81410
H          1.65190       -2.92680        0.16210
