15
gdb 3170	5.89784	2.42902	2.02185	1.3594	64.2	-0.2095	0.0172	0.2267	671.8716	0.125467	-308.503515	-308.497387	-308.496443	-308.533442	23.577
C         -0.10880        1.46410        0.08800
C          1.29640        0.91280       -0.06580
C          0.11280       -0.02020       -0.05080
O         -0.07670       -0.82380        1.09810
C         -0.61520       -2.08800        0.71030
C         -0.75040       -2.01480       -0.78670
C         -0.33000       -0.82590       -1.20830
H         -0.40100        1.81180        1.07250
H         -0.55400        2.00590       -0.73990
H          1.82410        1.07290       -1.00030
H          1.92430        0.89940        0.81800
H          0.06030       -2.89530        1.03510
H         -1.58080       -2.25130        1.21470
H         -1.13490       -2.82630       -1.39030
H         -0.29840       -0.46110       -2.22660
