14
gdb 7943	3.60397	1.80017	1.25434	0.8928	58.76	-0.2502	-0.0238	0.2264	903.9553	0.109153	-415.935292	-415.928084	-415.92714	-415.967164	26.409
N          0.06020        1.46490        0.24340
C         -0.03620        0.03940       -0.03210
C         -1.47530       -0.48220       -0.17750
C         -1.43760       -1.47340       -1.33810
O         -2.30150       -2.22570       -1.70540
N         -0.18860       -1.33430       -1.94420
C          0.66000       -0.42420       -1.32910
O          1.73570       -0.06890       -1.74050
H          1.04270        1.72850        0.24740
H         -0.36040        1.98990       -0.52010
H          0.46980       -0.49050        0.78510
H         -1.87650       -0.95980        0.71750
H         -2.16250        0.32870       -0.44370
H          0.05580       -1.83080       -2.79050
