20
gdb 18036	3.64322	2.00072	1.46688	0.2227	79.8	-0.2323	0.0292	0.2615	910.5995	0.180627	-311.87845	-311.871658	-311.870713	-311.909124	27.831
C         -0.02750        1.57600        0.06240
C          1.51580        1.58930       -0.12540
C          1.42600        0.10210       -0.60380
C          2.42010       -0.91250       -0.13940
C          2.10310       -1.88750        0.71450
C          0.73620       -2.01480        1.34370
C          0.01900       -0.65600        1.39380
C          0.00020        0.02120        0.02010
H         -0.42740        2.03920        0.96880
H         -0.54710        2.00170       -0.80060
H          1.93110        2.31690       -0.82670
H          2.05110        1.67770        0.82350
H          1.36350        0.08420       -1.69890
H          3.42880       -0.84830       -0.54370
H          2.85070       -2.62660        0.99300
H          0.13040       -2.74540        0.78670
H          0.83150       -2.42520        2.35620
H         -1.00210       -0.76770        1.77610
H          0.55250       -0.01680        2.10860
H         -0.75470       -0.45250       -0.61560
