18
gdb 19400	3.07245	2.13821	1.61539	1.7846	71.44	-0.248	0.0922	0.3402	865.174	0.153227	-347.749538	-347.742163	-347.741219	-347.780801	28.885
C         -0.05900        1.56390       -0.07190
C          0.01950        0.04730        0.01610
C          1.06430       -0.65920       -0.87840
O          2.36230       -0.21050       -0.47390
C          1.73420       -1.25860        0.28580
C          0.75270       -0.60050        1.23210
C          1.02280       -0.03920        2.59360
C          0.11160       -1.23650        2.42860
H          0.94230        1.99760       -0.00850
H         -0.51480        1.88080       -1.01640
H         -0.66460        1.97790        0.74170
H         -0.96710       -0.41130       -0.11580
H          0.95670       -1.01840       -1.89570
H          2.27890       -2.19010        0.39390
H          2.00500       -0.19190        3.02860
H          0.56760        0.91270        2.84790
H         -0.95490       -1.09430        2.57350
H          0.47650       -2.20660        2.75220
