17
gdb 3240	7.13889	1.49615	1.36545	1.6933	64.19	-0.2588	0.0985	0.3573	911.6136	0.14829	-309.680487	-309.67333	-309.672386	-309.712245	26.114
C          0.03790        1.46830       -0.48600
C         -0.06420       -0.01400       -0.18460
C         -0.29600       -0.48040        1.22980
C         -1.38760       -0.62670        0.19790
C          1.39930        2.03890       -0.16100
C          1.58510        3.42520        0.28330
O          1.65820        2.34250        1.21320
H         -0.17850        1.65070       -1.54790
H         -0.71510        2.01740        0.09210
H          0.58980       -0.63780       -0.78960
H          0.21450       -1.37460        1.56960
H         -0.40970        0.28180        1.99240
H         -2.24810        0.03110        0.27030
H         -1.62180       -1.61990       -0.16930
H          2.23960        1.55690       -0.66570
H          2.52470        3.94040        0.08770
H          0.71610        4.07420        0.38950
