12
gdb 4208	5.69508	2.57472	1.77311	1.2641	58.19	-0.243	-0.0087	0.2343	646.1342	0.092123	-331.411639	-331.406505	-331.405561	-331.440449	20.115
F          0.00180        0.01860        0.00370
C         -0.01640        1.35670        0.01060
C         -1.23910        2.01330        0.03030
C         -1.24960        3.40610        0.03740
C         -0.05390        4.12180        0.02500
C          1.16080        3.43900        0.00530
C          1.18810        2.04650       -0.00200
H         -2.15480        1.43390        0.03970
H         -2.19870        3.93130        0.05280
H         -0.06860        5.20590        0.03060
H          2.09520        3.98990       -0.00440
H          2.11920        1.49230       -0.01730
