14
gdb 12956	2.93548	2.10043	1.6246	1.9471	59.1	-0.2422	-0.0117	0.2304	811.1403	0.105768	-419.655012	-419.647587	-419.646643	-419.686559	27.846
O         -0.12350        1.37700        0.20040
C         -0.08500       -0.00590       -0.00120
C         -1.35120       -0.77250        0.01030
C         -2.44620        0.01170       -0.72120
C         -1.59250       -0.14200       -1.99840
O         -1.87680       -0.20130       -3.16840
C         -0.39120       -0.67470       -1.30830
O          0.51990       -1.50300       -1.89650
H          0.60560        1.77360       -0.28840
H          0.74380       -0.51400        0.49730
H         -1.51590       -1.63750        0.63860
H         -3.39690       -0.51560       -0.82480
H         -2.61290        1.02790       -0.36230
H          0.09090       -1.89130       -2.67140
