17
gdb 9180	7.75278	0.78878	0.72866	3.907	69.76	-0.2643	-0.0283	0.236	1501.8111	0.139779	-363.909007	-363.899568	-363.898624	-363.945353	31.576
C          0.09650        1.53960        0.00890
C         -0.04770        0.01980        0.00270
C         -1.49250       -0.45480        0.01390
O         -2.42940        0.31090        0.02690
C         -1.70700       -1.96600        0.00800
C         -3.19940       -2.33150        0.02050
C         -3.41060       -3.77620        0.01480
N         -3.56010       -4.92210        0.01000
H          1.15180        1.82520        0.00050
H         -0.38920        1.98150       -0.86460
H         -0.37280        1.97270        0.89570
H          0.44340       -0.42340       -0.87490
H          0.45970       -0.43210        0.86640
H         -1.21090       -2.39290       -0.87200
H         -1.19390       -2.40220        0.87360
H         -3.68340       -1.89850        0.90120
H         -3.70040       -1.88910       -0.84580
