13
gdb 3206	3.54417	3.32827	2.05449	2.772	53.85	-0.2432	-0.0299	0.2133	638.0078	0.10061	-344.426408	-344.420094	-344.419149	-344.45654	23.012
C         -0.03970        1.59620       -0.06190
C          0.03650        0.07680       -0.02020
C          0.71270       -0.66890       -1.18650
O          2.06590       -0.23270       -1.21440
C          1.72640       -1.31600       -0.31620
C          1.10410       -0.61890        0.89250
O          1.26540       -0.67660        2.07380
H          0.91360        2.01610       -0.39180
H         -0.82540        1.93600       -0.74430
H         -0.26330        1.99080        0.93370
H         -0.93510       -0.36840        0.23150
H          0.28080       -1.05140       -2.10340
H          2.28000       -2.24190       -0.41510
