14
gdb 10679	2.66876	2.32345	1.37262	1.3408	59.47	-0.2658	-0.0455	0.2203	860.0802	0.107345	-415.881743	-415.874201	-415.873256	-415.913592	27.691
N          0.32860        0.88600       -0.80590
C          0.03270        0.00510        0.17100
O          0.73470       -0.21260        1.14700
C         -1.26850       -0.76010        0.00040
C         -1.15290       -2.24760        0.26560
N         -1.79170       -1.39110        1.23440
C         -2.33460       -0.34170       -0.94790
O         -2.20790        0.45650       -1.85020
H          1.15860        1.44690       -0.70400
H         -0.34840        1.07350       -1.53410
H         -1.80770       -2.93020       -0.26960
H         -0.14220       -2.59820        0.45280
H         -1.10990       -1.15900        1.95990
H         -3.30150       -0.85130       -0.76030
