17
gdb 11434	4.31299	1.33416	1.21283	3.0399	64.	-0.2287	-0.0188	0.2099	1013.7956	0.142755	-401.011287	-401.003446	-401.002502	-401.043865	29.022
O          0.05750        1.16750        0.67660
C         -0.05380       -0.21020        0.34710
C         -1.43040       -0.53980       -0.25250
C         -1.66350       -2.04850       -0.38320
C         -2.38870       -2.42780        0.91150
O         -2.57380       -3.54010        1.32760
C         -2.82460       -1.12730        1.58920
N         -2.54970       -0.09010        0.59650
H          0.07120        1.66870       -0.14590
H          0.74510       -0.52850       -0.34050
H          0.09250       -0.75110        1.28950
H         -1.50390       -0.03440       -1.22520
H         -2.33190       -2.27790       -1.22050
H         -0.75650       -2.64440       -0.51290
H         -3.88580       -1.17320        1.85730
H         -2.25770       -1.03870        2.53170
H         -2.31410        0.80030        1.02100
