14
gdb 16922	3.89639	2.27415	2.08438	4.2681	60.36	-0.2489	-0.0246	0.2242	697.2327	0.110118	-382.573991	-382.568506	-382.567562	-382.603408	22.418
O         -0.01420        0.01260       -0.00810
C          0.01580        1.20740       -0.00230
O         -1.10010        1.99620        0.00900
C         -0.61540        3.38820        0.04420
C          0.60470        3.29040       -0.88570
C          1.22300        2.17060       -0.00250
C          1.16350        2.84600        1.37030
C          0.05840        3.59510        1.39740
H         -1.44870        4.02980       -0.23010
H          0.33970        2.97040       -1.89730
H          1.21290        4.19530       -0.91080
H          2.15640        1.69930       -0.29720
H          1.86430        2.65160        2.17050
H         -0.35400        4.16100        2.22070
