15
gdb 2779	4.28002	2.24838	1.58856	3.9218	56.77	-0.2707	0.0098	0.2805	778.5544	0.125233	-345.686524	-345.6795	-345.678556	-345.717833	24.829
C         -0.04050        1.59690       -0.04890
C          0.09030        0.07480        0.06880
C          0.72520       -0.55210       -1.17310
C          0.70070       -2.08470       -1.33660
O         -0.11160       -1.95490       -2.54880
C         -0.14140       -0.58660       -2.43860
O         -0.70710        0.18610       -3.14420
H          0.94270        2.07070       -0.14330
H         -0.62820        1.86910       -0.92970
H         -0.52970        2.01530        0.83530
H          0.69760       -0.18670        0.94400
H         -0.89790       -0.37340        0.23160
H          1.70620       -0.10910       -1.37160
H          1.65110       -2.57380       -1.55830
H          0.15460       -2.63550       -0.56700
