18
gdb 12230	3.39476	1.54791	1.24828	2.5583	71.26	-0.2305	0.0274	0.2579	1034.4681	0.152532	-381.109581	-381.100448	-381.099504	-381.143507	32.387
C          0.06890        1.35300       -0.08790
N          0.16070       -0.09900       -0.08100
C          0.65660       -0.66240        0.93470
N          1.18330       -0.28780        2.16380
C          1.01470       -1.63930        2.75760
C         -0.14160       -1.79040        3.73140
C          0.73060       -2.14120        1.29230
O         -0.44640       -2.86990        1.07310
H          1.01380        1.80490       -0.41810
H         -0.70640        1.66570       -0.79290
H         -0.17780        1.78350        0.89610
H          1.03770        0.59300        2.63830
H          1.94600       -2.01490        3.19410
H         -1.08210       -1.46670        3.27840
H         -0.25470       -2.83850        4.02420
H          0.03540       -1.20230        4.63840
H          1.59580       -2.65850        0.85950
H         -0.95510       -2.36750        0.42410
