16
gdb 17296	3.29054	2.47427	1.93742	2.8488	63.28	-0.2413	0.0588	0.3002	749.5683	0.129989	-383.669161	-383.662558	-383.661614	-383.699486	26.171
C         -0.07350        1.52180        0.00420
C          0.03670        0.02290        0.06400
O         -1.21310       -0.66090        0.27520
C         -0.64920       -1.46790        1.34180
C          0.73350       -0.80070        1.18240
C          1.66340       -1.40720        0.10310
O          0.84430       -2.07150       -0.85910
C          0.98950       -0.65720       -0.97740
H          0.91490        1.98120       -0.10420
H         -0.68230        1.81790       -0.85770
H         -0.54680        1.91460        0.90810
H         -1.14530       -1.25850        2.29650
H         -0.69870       -2.53640        1.11630
H          1.20960       -0.33130        2.04150
H          2.68870       -1.74460        0.20190
H          1.35010       -0.27440       -1.92710
