15
gdb 12651	3.36862	2.00325	1.31097	4.4351	63.6	-0.2562	-0.0683	0.1879	902.5194	0.11906	-399.831674	-399.8242	-399.823256	-399.8637	27.072
C         -0.23050        1.55440        0.01960
C          0.12450        0.07110       -0.00120
C          0.95950       -0.42160       -1.18920
O          1.77060       -1.51620       -0.69940
C          1.90340       -1.45780        0.65290
N          2.64900       -2.18480        1.36520
C          0.97270       -0.38070        1.18500
O          0.92640        0.02710        2.31220
H          0.66660        2.17340       -0.08210
H         -0.91760        1.81160       -0.79130
H         -0.70370        1.80680        0.97170
H         -0.79440       -0.53100        0.05350
H          0.36910       -0.80490       -2.02310
H          1.62570        0.36620       -1.56190
H          3.17900       -2.84050        0.78600
