13
gdb 9586	4.33495	1.35327	1.2651	4.3481	62.13	-0.2756	-0.061	0.2146	948.3817	0.09374	-398.60512	-398.597468	-398.596524	-398.637217	27.484
O          0.03700        1.38600        0.08950
C          0.02310        0.01490        0.06760
C         -0.45470       -0.70190        1.29200
C         -1.34930       -0.73160        0.07140
C         -2.53910        0.06350        0.02160
N         -3.50740        0.69340       -0.03310
C          1.04480       -0.59880       -0.81880
O          1.75720        0.08250       -1.51620
H          0.57660        1.65620       -0.67060
H          0.02130       -1.63210        1.58210
H         -0.75530       -0.05540        2.10770
H         -1.40630       -1.66430       -0.48070
H          1.09490       -1.70680       -0.81850
