14
gdb 17511	4.95006	1.81687	1.6524	4.6794	65.55	-0.2497	0.0048	0.2545	782.2747	0.109286	-341.525749	-341.519769	-341.518824	-341.555717	23.713
N          0.05060       -1.17370        0.04700
C          0.02550       -0.01910       -0.00260
C         -0.04470        1.42070       -0.06280
C         -1.12750        2.21000        0.74720
C         -0.93170        3.30950       -0.29070
C          0.56740        3.25570       -0.67860
N          1.23000        2.18740        0.07320
C         -0.40790        2.32430       -1.31700
H         -2.10970        1.74140        0.65700
H         -0.89690        2.40560        1.80060
H         -1.54520        4.18310       -0.46420
H          1.10340        4.09240       -1.10570
H          1.44190        2.41920        1.04610
H         -0.65790        2.08810       -2.33980
