18
gdb 13970	5.52733	1.07638	0.99994	0.2701	83.91	-0.2168	0.0474	0.2642	1238.9471	0.15338	-310.622684	-310.614349	-310.613405	-310.657172	30.184
C         -0.01800        1.48940       -0.01380
C         -0.01870        0.03400       -0.00870
C         -0.02160       -1.17250       -0.00910
C         -0.00250       -2.59550        0.01910
C         -0.37820       -3.44930       -1.17400
C         -1.17200       -3.61210        0.08460
C         -0.39820       -4.46510        1.09310
C          0.79310       -3.45610        1.02240
H          0.78940        1.88580        0.61240
H          0.12430        1.88860       -1.02460
H         -0.96080        1.89400        0.37220
H         -0.87240       -2.91220       -1.97600
H          0.29720       -4.23620       -1.50520
H         -2.23310       -3.39690        0.11930
H         -0.85980       -4.48560        2.08230
H         -0.19290       -5.49510        0.78290
H          1.75130       -3.83830        0.65610
H          0.95850       -2.94190        1.97040
