10
gdb 3928	8.67861	2.15306	1.72509	3.4428	49.35	-0.2798	-0.0717	0.2081	642.5149	0.068393	-355.518342	-355.512942	-355.511998	-355.54774	18.643
O         -0.09010       -0.04830        0.00020
C         -0.04950        1.14890        0.00880
N          1.14620        1.88180        0.00040
C          2.44220        1.39910       -0.01810
N          3.29410        2.37900       -0.02040
N          2.56620        3.57130       -0.00340
C          1.30790        3.25500        0.00840
H         -0.93500        1.80690        0.02340
H          2.66390        0.34470       -0.02840
H          0.47700        3.94350        0.02280
