20
gdb 15722	2.79562	1.90527	1.33053	2.4207	71.39	-0.2358	0.0754	0.3112	999.8258	0.176647	-386.139637	-386.130906	-386.129962	-386.173226	31.499
C          0.22990        1.28030        0.27600
O          0.05200       -0.09850        0.05380
C          0.55900       -0.55870       -1.18660
C          2.07320       -0.81950       -1.13030
C          2.12140       -2.18260       -0.43130
O          0.94260       -2.87610       -0.83370
C          0.02160       -1.97510       -1.46080
C         -1.38900       -2.25880       -0.96950
H          1.29050        1.56840        0.32820
H         -0.24880        1.88190       -0.51280
H         -0.24050        1.51600        1.23370
H          0.27470        0.13860       -1.98830
H          2.47420       -0.88680       -2.14730
H          2.62490       -0.04060       -0.59920
H          2.99810       -2.77710       -0.71100
H          2.12380       -2.05930        0.66070
H          0.06510       -2.13630       -2.55070
H         -1.46910       -2.05770        0.09960
H         -2.11360       -1.63170       -1.49910
H         -1.63900       -3.30660       -1.15610
