18
gdb 8410	3.72285	1.60835	1.38209	2.1237	67.92	-0.2509	0.0651	0.316	962.7004	0.151328	-384.907435	-384.899036	-384.898092	-384.940019	30.865
C         -0.07000        1.53240        0.03310
C         -0.08820        0.02130        0.08570
C         -1.26280       -0.65210       -0.58780
O          1.19560       -0.60800       -0.16660
C          0.65590       -0.68290        1.13400
C          1.34880       -0.19390        2.40330
O          0.94810       -1.39930        3.09300
C          0.37620       -1.97520        1.89710
H          0.82400        1.93220        0.51720
H         -0.07830        1.87810       -1.00620
H         -0.95280        1.94800        0.53080
H         -1.30730       -0.37290       -1.64590
H         -1.18090       -1.73970       -0.52640
H         -2.20500       -0.34530       -0.12090
H          2.43920       -0.10520        2.31350
H          0.94520        0.70910        2.87770
H         -0.67480       -2.25780        2.03450
H          0.94500       -2.84160        1.53590
