20
gdb 14237	3.35629	1.70902	1.64813	1.5762	74.44	-0.2367	0.0809	0.3176	932.3834	0.177231	-348.981147	-348.973267	-348.972323	-349.013186	30.468
C          0.35730        1.58630        0.02180
C          0.09260        0.08910        0.03340
C          0.87600       -0.82810       -0.96520
C          1.30890       -1.75290        0.20950
C          2.62960       -1.38720        0.91800
C          3.86540       -0.94750        0.16260
O          1.97530       -0.30390        1.63670
C          0.66890       -0.74470        1.20360
H          1.41680        1.78740        0.20140
H          0.07770        2.02630       -0.94160
H         -0.21660        2.09790        0.80240
H         -0.98300       -0.10730       -0.04750
H          0.24720       -1.32080       -1.71010
H          1.69700       -0.33590       -1.49300
H          1.04720       -2.80800        0.14110
H          2.90640       -2.17780        1.63290
H          3.64300       -0.16100       -0.56270
H          4.61010       -0.55800        0.86420
H          4.31000       -1.79740       -0.36660
H          0.02070       -1.00010        2.04780
