13
gdb 21455	6.17555	1.4731	1.18939	1.7956	63.25	-0.2166	0.0079	0.2244	935.3776	0.098978	-390.983282	-390.976499	-390.975555	-391.014862	24.342
N          0.27360        1.32490        0.04650
C          0.04120        0.07610        0.01850
N         -1.21980       -0.47950        0.01570
C         -2.45770        0.13400        0.04280
N         -2.68600        1.43770        0.07730
N         -4.05000        1.46340        0.09020
C         -4.55120        0.21830        0.06360
N         -3.57130       -0.66320        0.03300
H          1.27890        1.48560        0.04170
H          0.80160       -0.71480       -0.00720
H         -1.28320       -1.48400       -0.00680
H         -4.52500        2.34990        0.11650
H         -5.60820       -0.00050        0.06750
