12
gdb 1945	6.17362	1.87492	1.69231	3.8041	51.87	-0.2595	-0.0431	0.2164	717.5531	0.089433	-360.538828	-360.532323	-360.531379	-360.569716	22.661
O         -0.06470       -0.01440        0.23730
C         -0.02370        1.16120       -0.01620
C          1.24600        1.97990       -0.02350
C          1.44560        2.90160        1.22810
C          2.63990        1.96580        1.55230
O          3.42100        1.85370        2.45290
N          2.45560        1.26840        0.37360
H         -0.94020        1.73890       -0.27360
H          1.32230        2.50930       -0.98270
H          1.70650        3.93840        1.01380
H          0.64670        2.86440        1.97140
H          2.72830        0.32340        0.14280
