22
gdb 6500	3.50382	1.26372	1.07078	1.2295	78.42	-0.2459	0.0719	0.3178	1210.8894	0.198184	-350.19868	-350.189108	-350.188164	-350.232794	36.3
C         -0.82470        0.79670        1.02560
C          0.66210        0.49660        0.78700
C          1.22800       -0.35690        1.93150
C          0.85780       -0.15140       -0.60070
C          2.28060       -0.18040       -1.13140
O          3.19190       -0.97830       -0.41070
C          2.52350       -0.07590       -2.61880
C          2.89980        1.06400       -1.68980
H         -1.23150        1.46110        0.25550
H         -1.41780       -0.12620        1.01510
H         -0.97930        1.27560        1.99820
H          1.20220        1.45360        0.77810
H          0.70610       -1.32120        1.98710
H          2.29110       -0.55710        1.79140
H          1.08870        0.14550        2.89490
H          0.45980       -1.17820       -0.58230
H          0.24440        0.39120       -1.33080
H          2.91120       -1.89600       -0.50180
H          3.33660       -0.66920       -3.02200
H          1.67580        0.05270       -3.28350
H          2.30560        1.97100       -1.71570
H          3.95400        1.21480       -1.48940
