18
gdb 20090	3.49329	1.4461	1.24654	1.9731	68.48	-0.2269	0.0536	0.2805	1032.0252	0.153072	-384.892862	-384.884609	-384.883664	-384.926076	31.032
O         -0.00850        1.19750       -0.42690
C         -0.08290       -0.15090       -0.07720
C         -0.30500       -0.47010        1.38420
O         -0.49650        0.64910        2.21780
C         -1.40670       -0.74410        0.38380
C         -2.66990        0.05460        0.35810
C         -3.79920       -0.36070       -0.55260
C         -3.94030       -0.51260        0.94230
H         -0.16160        1.69190        0.39070
H          0.59020       -0.76050       -0.67270
H          0.20030       -1.31000        1.85690
H          0.35960        0.88210        2.59430
H         -1.54290       -1.79940        0.15660
H         -2.53000        1.12230        0.47570
H         -4.36830        0.41580       -1.05150
H         -3.66860       -1.26130       -1.14380
H         -3.90400       -1.51560        1.35490
H         -4.60770        0.15880        1.47140
