20
gdb 13218	3.36594	1.41664	1.19486	3.0106	71.17	-0.2356	0.0723	0.3079	1094.5941	0.175731	-386.107432	-386.098317	-386.097372	-386.141781	32.069
C          0.02760        1.44340       -0.00840
O         -0.15330        0.05580       -0.16570
C          0.65170       -0.55020       -1.16790
C          2.10600       -0.71640       -0.71310
C          0.01130       -1.89040       -1.51230
C         -0.38850       -2.83270       -0.35140
O         -1.75460       -2.88540       -0.80960
C         -1.49690       -1.91360       -1.84320
H          1.02290        1.70070        0.38200
H         -0.11920        1.98180       -0.95790
H         -0.72290        1.78480        0.70880
H          0.63170        0.08400       -2.07250
H          2.15790       -1.34950        0.17840
H          2.70370       -1.18100       -1.50360
H          2.56570        0.24630       -0.47360
H          0.62100       -2.38620       -2.27190
H          0.07950       -3.82430       -0.34290
H         -0.30920       -2.38170        0.64450
H         -2.01230       -0.96550       -1.64990
H         -1.77390       -2.28710       -2.83650
