19
gdb 7480	3.74032	1.44901	1.41682	3.5458	71.86	-0.2442	0.0322	0.2764	987.5669	0.16519	-365.084672	-365.076206	-365.075261	-365.117523	31.542
C         -0.00600        1.61950        0.16480
C         -0.00360        0.09400        0.03990
C          1.09860       -0.43140       -0.93100
C          2.00210       -0.71630        0.29880
C          0.74380       -0.61640        1.20420
N         -1.35380       -0.41400       -0.18870
C         -2.04310       -0.22460       -1.34110
O         -1.62110        0.36120       -2.31830
H          1.00720        1.99550        0.33910
H         -0.38890        2.06610       -0.75560
H         -0.63630        1.93750        1.00220
H          0.77970       -1.34900       -1.42940
H          1.45720        0.27120       -1.68450
H          2.54270       -1.66440        0.31150
H          2.71630        0.08790        0.49200
H          0.82670       -0.06490        2.14450
H          0.31800       -1.60380        1.40960
H         -1.81780       -0.88970        0.56940
H         -3.05320       -0.68190       -1.30050
