24
gdb 13622	3.37448	1.1529	1.01125	0.0908	85.62	-0.2616	0.0855	0.3471	1316.2663	0.222167	-314.271555	-314.261501	-314.260557	-314.306236	37.301
C          0.67280        1.78440       -3.59340
C          1.05620        0.55970       -2.75680
C          0.26220       -0.72240       -3.07950
C          0.51350       -1.22200       -4.51120
C          0.59720       -1.80990       -2.07120
C         -0.02940       -1.83590       -0.69700
C         -0.34780       -2.92960       -1.69020
C         -1.74200       -3.07890       -2.26150
H          0.88870        1.64180       -4.65680
H         -0.39630        2.00820       -3.49970
H          1.22540        2.67030       -3.26450
H          2.12870        0.35300       -2.87890
H          0.91290        0.79270       -1.69470
H         -0.80480       -0.47680       -2.98650
H         -0.05720       -2.13310       -4.71400
H          0.23050       -0.47760       -5.26120
H          1.57500       -1.45620       -4.65870
H          1.64660       -2.10030       -2.10450
H          0.58800       -2.06310        0.16560
H         -0.81360       -1.11020       -0.49790
H          0.14010       -3.88240       -1.49810
H         -2.37780       -3.65460       -1.57950
H         -2.22820       -2.11160       -2.41760
H         -1.73070       -3.60410       -3.22340
