14
gdb 806	3.52485	2.14842	1.44961	0.6625	64.81	-0.2383	-0.031	0.2072	830.6001	0.110998	-324.505365	-324.497426	-324.496481	-324.537589	28.334
C         -0.01500        1.54400        0.04040
C         -0.01420        0.00670       -0.02720
C          0.74590       -0.50650       -1.23160
N          2.01920       -0.69740       -1.28090
O          2.63110       -0.37570       -0.06920
C          0.02110       -0.78150       -2.42780
C         -0.66060       -0.98900       -3.39830
H          1.00570        1.92540        0.12260
H         -0.47310        1.97690       -0.85400
H         -0.58140        1.88650        0.91150
H          0.44980       -0.40200        0.87420
H         -1.04070       -0.36590       -0.08010
H          3.55370       -0.58960       -0.24540
H         -1.24050       -1.17900       -4.26750
