22
gdb 10520	3.63072	1.13392	0.97619	1.6443	78.3	-0.258	0.0905	0.3485	1313.9497	0.198583	-350.198407	-350.188704	-350.18776	-350.233224	35.221
C         -0.11170        1.60330       -0.11870
C         -0.06830        0.07540       -0.20600
C         -1.35740       -0.57970        0.31200
C         -1.40410       -2.09000        0.13410
C         -0.38800       -2.88880        0.94020
C         -0.44780       -4.40760        0.75990
C         -2.66240       -2.69840       -0.32810
O         -1.57100       -2.50670       -1.23380
H          0.81390        2.04990       -0.49490
H         -0.94120        2.01030       -0.70760
H         -0.24640        1.93870        0.91600
H          0.08570       -0.23440       -1.24630
H          0.79560       -0.29280        0.35980
H         -1.49520       -0.33980        1.37540
H         -2.21100       -0.14370       -0.22020
H          0.61200       -2.53740        0.65850
H         -0.51160       -2.62690        1.99910
H         -1.34690       -4.83820        1.21160
H         -0.44020       -4.66640       -0.30240
H          0.41560       -4.88280        1.23420
H         -2.89710       -3.73530       -0.09820
H         -3.52950       -2.06140       -0.50140
