13
gdb 3797	7.63907	2.11279	1.67281	3.1349	55.69	-0.2128	0.0403	0.2531	710.3081	0.103609	-340.638326	-340.631969	-340.631024	-340.668795	22.691
C          0.00250        1.41350        0.03490
O         -0.00680       -0.00400       -0.00610
C          0.60400       -0.65090        1.00320
C          0.73980       -2.01240        1.18220
C          1.45600       -2.12460        2.39280
N          1.74720       -0.94750        2.93280
N          1.21270       -0.04990        2.05940
H          1.02680        1.80900        0.01360
H         -0.52700        1.75000       -0.85680
H         -0.51820        1.79300        0.92430
H          0.37300       -2.78640        0.53030
H          1.77130       -3.02900        2.89310
H          1.30640        0.93080        2.25300
