17
gdb 12986	2.73869	2.53954	1.56662	3.1996	68.	-0.2283	-0.0136	0.2147	845.6073	0.143019	-363.877794	-363.870427	-363.869483	-363.909189	28.185
C         -0.24270        1.51640        0.06000
C          0.11090        0.05830       -0.00260
N         -0.69510       -0.97270        0.72960
C          0.71210       -0.75680        1.09370
C          1.62480       -1.83130        0.51580
C          1.24280       -1.89690       -0.98060
C          0.62000       -0.53130       -1.29530
O          0.60050        0.02180       -2.36630
H          0.59590        2.13410       -0.27500
H         -1.09090        1.73620       -0.59580
H         -0.50440        1.81630        1.07990
H         -1.29200       -0.47440        1.38790
H          0.94450       -0.30300        2.05240
H          2.66940       -1.52300        0.63340
H          1.49950       -2.78940        1.02840
H          2.08160       -2.09590       -1.64950
H          0.48130       -2.66220       -1.16160
