13
gdb 4271	4.2453	1.89305	1.31069	4.9928	65.93	-0.213	-0.0226	0.1903	860.9396	0.097986	-394.812844	-394.806214	-394.80527	-394.84355	25.245
N          0.09150        1.36520        0.18510
C         -0.06240        0.00550        0.06600
C         -1.20630       -0.70420        0.03100
C         -1.16460       -2.15370       -0.00770
N         -2.22330       -2.87020       -0.03250
N          0.13820       -2.73750       -0.02490
C          1.14640       -1.97770       -0.00330
O          1.16070       -0.61170        0.04320
H          0.94660        1.73040       -0.20890
H         -0.72580        1.90970       -0.04430
H         -2.16660       -0.20620        0.03930
H         -1.95120       -3.85450       -0.06210
H          2.16520       -2.35360       -0.01920
