14
gdb 21966	7.189	1.12997	1.0472	3.1025	59.05	-0.2879	-0.0254	0.2625	1073.6832	0.108617	-412.015332	-412.00789	-412.006946	-412.048397	25.081
O         -0.06720        1.40390        0.00470
C          0.03710       -0.00490       -0.05090
C         -1.39350       -0.53260        0.06250
N         -1.43330       -1.98330        0.01060
N         -1.20280       -2.68110       -1.09610
C         -1.31030       -3.92460       -0.64470
N         -1.59100       -3.97980        0.67620
N         -1.66410       -2.73590        1.08080
H          0.81360        1.77880       -0.08300
H          0.47660       -0.35380       -0.99610
H          0.63940       -0.41080        0.77590
H         -1.83470       -0.23860        1.01530
H         -2.00190       -0.13730       -0.75370
H         -1.19060       -4.79370       -1.27070
