17
gdb 17882	3.92684	2.02665	1.83678	2.0576	66.9	-0.243	0.0178	0.2608	794.0906	0.144767	-363.858162	-363.851683	-363.850739	-363.888395	25.919
C         -0.10400        1.51050       -0.00150
C          0.02150       -0.00760        0.01680
C          1.18750       -0.59850       -0.82560
C          2.10160       -0.42380        0.41060
C          0.79190       -0.63660        1.22820
N          0.50100       -2.07640        1.26590
C          0.60340       -2.63060        0.13010
O          0.94170       -2.00910       -1.02860
H          0.84600        2.01780        0.19050
H         -0.47350        1.85800       -0.97260
H         -0.81430        1.84310        0.76260
H         -0.95120       -0.46840       -0.17920
H          1.45180       -0.18790       -1.80030
H          2.90530       -1.14830        0.55320
H          2.49180        0.59140        0.48270
H          0.68920       -0.19810        2.22130
H          0.42720       -3.69210       -0.02290
