17
gdb 13672	5.2706	0.8971	0.8242	5.3688	69.33	-0.2688	0.0398	0.3086	1347.2822	0.141628	-363.860407	-363.851868	-363.850923	-363.894165	30.562
O         -0.10280        1.46580        0.15560
C         -0.03140        0.07310        0.06530
C         -0.63730       -0.77470        1.15650
C         -1.32000       -0.65180       -0.19620
C         -2.61890        0.11260       -0.32660
C         -3.82410       -0.73570        0.13270
C         -5.09380       -0.02270        0.01300
N         -6.08970        0.55510       -0.08720
H          0.51330        1.75340        0.83710
H          0.86130       -0.30540       -0.43230
H         -0.15970       -1.70930        1.42930
H         -1.09170       -0.23600        1.98250
H         -1.23970       -1.51980       -0.84630
H         -2.56830        1.03150        0.26200
H         -2.77180        0.41850       -1.36730
H         -3.88840       -1.65790       -0.45690
H         -3.69120       -1.04150        1.17670
