9
gdb 8978	7.71298	0.81886	0.74027	1.4423	65.82	-0.2888	-0.1493	0.1394	1339.287	0.046213	-396.180018	-396.172333	-396.171388	-396.213322	24.614
O         -0.10980        0.02450        0.00090
C         -0.02380        1.21720        0.00660
C          1.35770        1.92140       -0.00070
O          2.39150        1.30210       -0.01240
C          1.30160        3.37200        0.00750
C          1.24230        4.58100        0.01450
C          1.17250        5.94380        0.02240
N          1.10800        7.10330        0.02920
H         -0.90220        1.89620        0.01740
