14
gdb 20315	5.88046	1.26944	1.11514	2.4792	67.91	-0.2399	0.0201	0.26	1021.8909	0.108411	-341.568303	-341.56106	-341.560116	-341.601067	26.415
C         -0.17370       -1.18360       -0.50780
C         -0.08370       -0.04100       -0.14750
C          0.02700        1.35440        0.27430
C          1.42080        1.91590        0.14920
C          2.12280        2.63940        1.09140
N          3.31270        2.95720        0.52500
N          3.44420        2.48630       -0.72880
C          2.29790        1.85460       -0.95950
H         -0.25110       -2.19550       -0.81980
H         -0.67690        1.95600       -0.31790
H         -0.30980        1.44640        1.31400
H          1.86970        2.94130        2.09580
H          4.07150        3.47540        0.93340
H          2.13440        1.36410       -1.90780
