13
gdb 156	7.29736	7.21425	3.92627	0.1413	50.34	-0.2335	0.0325	0.2661	375.5096	0.116471	-195.226072	-195.221411	-195.220467	-195.253489	17.052
C          0.04740        1.48870       -0.22620
C          1.46420        1.94270        0.21660
C          2.19060        0.63550        0.43370
C          1.36130       -0.40640        0.43610
C         -0.07600        0.00750        0.22120
H         -0.74540        2.12070        0.18180
H         -0.02620        1.54470       -1.31670
H          1.94940        2.58330       -0.52880
H          1.43610        2.52740        1.14750
H          3.26070        0.58410        0.60350
H          1.65200       -1.43720        0.60830
H         -0.65000       -0.09370        1.15360
H         -0.59310       -0.61120       -0.52130
