14
gdb 12950	2.62262	2.26734	1.76848	3.634	58.14	-0.2241	0.0062	0.2303	793.2584	0.107507	-415.831682	-415.824289	-415.823345	-415.862976	27.899
N         -0.14280        1.49490       -0.17800
C         -0.06440        0.08960       -0.02250
C         -0.34740       -0.83610       -1.18900
O          0.61100       -1.77620       -1.56510
C         -1.18480       -0.97920        0.04700
N         -0.45410       -1.66470        1.11540
C          0.62300       -0.74750        1.06060
O          1.64320       -0.67930        1.68120
H         -0.18980        1.95990        0.72290
H          0.67550        1.85130       -0.66170
H         -0.83520       -0.30850       -2.01060
H          0.16820       -2.47560       -2.05800
H         -2.25480       -0.82950        0.10900
H         -0.26650       -2.66040        1.06960
