18
gdb 11939	3.05204	1.97607	1.52846	2.8815	74.1	-0.2401	-0.0224	0.2177	896.8382	0.152913	-347.799962	-347.792046	-347.791102	-347.83189	29.83
C          0.00010        1.45810        0.29540
C          0.02240       -0.02150        0.05040
C         -0.84920       -0.97320        0.78530
C          0.64460       -1.13700        0.98050
C          1.27090       -1.81250       -0.24170
C          0.65490       -0.71450       -1.16680
C          1.27880       -0.87560        2.27370
O          0.77150       -0.24510        3.17800
H          0.93860        1.93000       -0.01480
H         -0.81360        1.93300       -0.26630
H         -0.15330        1.66930        1.35780
H         -1.35800       -0.56880        1.65400
H         -1.38400       -1.76110        0.25870
H          2.36350       -1.78230       -0.23110
H          0.95370       -2.84380       -0.42750
H         -0.05090       -1.05630       -1.93090
H          1.41890       -0.10130       -1.65010
H          2.31540       -1.27430        2.36950
