17
gdb 9071	4.88791	0.84077	0.75387	2.7893	70.12	-0.2641	-0.0363	0.2278	1436.0213	0.140095	-363.892449	-363.883228	-363.882284	-363.927496	31.327
C          0.11460        1.55530        0.11390
C         -0.00280        0.03150       -0.08600
C         -1.45910       -0.49040       -0.03160
C         -2.12060       -0.30620        1.34350
C         -3.46410       -1.00390        1.40800
O         -4.49810       -0.47350        1.71660
C          0.60890       -0.35870       -1.36180
N          1.07900       -0.66400       -2.37250
H          1.15550        1.87670        0.03330
H         -0.46720        2.08960       -0.64270
H         -0.25500        1.84040        1.10160
H          0.57020       -0.47050        0.70520
H         -2.04880        0.02040       -0.80130
H         -1.45800       -1.55450       -0.29440
H         -1.48130       -0.76050        2.11570
H         -2.27060        0.74520        1.59970
H         -3.43060       -2.08600        1.13920
