18
gdb 11072	2.50619	2.19698	1.67158	0.8987	68.28	-0.2171	0.0657	0.2828	881.4117	0.15175	-384.899225	-384.89077	-384.889826	-384.931386	31.771
C         -0.05190        1.59040        0.02730
C          0.04030        0.09390        0.04540
C          0.67250       -0.78580       -1.02520
O          1.13570       -1.74380       -0.03280
C          0.63730       -0.91210        1.02450
C          1.41410       -0.82410        2.29460
C         -0.86170       -0.80220        0.87670
O         -1.55780       -0.10420        1.86980
H          0.92760        2.04930       -0.14690
H         -0.72640        1.93230       -0.76730
H         -0.44590        1.96170        0.97560
H          0.00960       -1.24560       -1.76890
H          1.52330       -0.31400       -1.53260
H          2.41720       -0.42090        2.12440
H          0.89420       -0.17620        3.00560
H          1.52300       -1.81770        2.74580
H         -1.40720       -1.62150        0.40020
H         -1.66230       -0.69020        2.62680
