14
gdb 16139	4.27671	1.80598	1.47219	2.929	63.38	-0.2592	-0.0405	0.2187	837.8161	0.106761	-382.536006	-382.529414	-382.528469	-382.566803	24.898
O         -0.19810        0.04080        0.25020
C         -0.03070        1.21150        0.01560
C          1.30540        1.85010       -0.07830
O          1.31150        3.27720        0.20870
C          1.63510        2.87750       -1.10920
C          3.12740        2.75920       -1.40250
C          3.58960        1.68140       -0.44260
C          2.58200        1.15830        0.25910
H         -0.87420        1.91730       -0.14520
H          0.93480        3.19000       -1.88020
H          3.30020        2.47830       -2.44880
H          3.63970        3.71490       -1.23900
H          4.63350        1.40750       -0.34160
H          2.63810        0.36420        0.99060
