16
gdb 19411	3.21382	2.16601	1.65508	1.65	64.4	-0.2311	0.0675	0.2986	811.8325	0.1318	-379.835672	-379.828813	-379.827869	-379.866538	26.985
O          0.16710        1.39000       -0.04820
C          0.01730        1.38020       -0.02760
C          0.31070       -0.73260        1.29660
N         -0.67550       -0.17250        2.25410
C         -1.07280       -1.28440        1.34310
C         -1.42140       -0.59900        0.04020
C         -2.67760        0.00280       -0.43680
N         -2.13910       -1.23280       -1.05520
H         -0.23670        1.70210        0.77340
H          0.58470       -0.40630       -0.87100
H          1.24810       -1.15310        1.63750
H         -0.47580       -0.57620        3.16820
H         -1.43270       -2.23170        1.72230
H         -3.59990       -0.13060        0.12150
H         -2.60060        0.93740       -0.98680
H         -1.69060       -1.01130       -1.94210
