17
gdb 16684	4.03743	1.7907	1.64995	3.4602	68.43	-0.2172	-0.0079	0.2093	849.8103	0.143147	-363.841466	-363.834645	-363.833701	-363.87218	27.004
C         -0.20670        1.44150        0.07660
N          0.03780        0.00590        0.02720
C          0.76560       -0.50260       -1.19870
C          2.12450       -0.12770       -0.54500
C          1.29920       -0.46090        0.73380
C          1.08280       -1.96780        0.54880
O          1.21430       -2.86290        1.33470
C          0.66190       -2.01630       -0.93970
H          0.65860        2.08600       -0.15000
H         -1.00140        1.68320       -0.63680
H         -0.56740        1.70310        1.07630
H          0.45030       -0.12000       -2.16950
H          3.00660       -0.73260       -0.77730
H          2.37230        0.93040       -0.62180
H          1.52030       -0.09220        1.73360
H         -0.35490       -2.39940       -1.04920
H          1.34660       -2.62800       -1.53390
