18
gdb 16838	3.63319	1.7725	1.42131	1.8764	66.37	-0.2515	0.0777	0.3292	920.3496	0.154437	-384.935763	-384.928225	-384.92728	-384.967424	29.137
C          0.06810        1.56330       -0.01780
C          0.02420        0.03450        0.02070
C          0.65330       -0.65220       -1.21630
C          1.21080       -2.01910       -0.73640
O          2.33920       -2.47320       -1.45970
C          1.47510       -1.79820        0.74330
O          2.22090       -0.58740        0.97860
C          0.79690       -0.57780        1.18040
H          1.10470        1.91340       -0.05610
H         -0.45450        1.95130       -0.89790
H         -0.40360        1.99850        0.86970
H         -1.02010       -0.29130        0.12760
H         -0.05210       -0.76300       -2.04270
H          1.49150       -0.05160       -1.58340
H          0.45820       -2.80870       -0.84870
H          3.05020       -1.84500       -1.28510
H          1.71420       -2.63020        1.40050
H          0.48030       -0.41670        2.20860
