14
gdb 4364	4.00567	1.84919	1.26621	2.808	67.96	-0.2225	0.0013	0.2238	895.13	0.1103	-378.798322	-378.791746	-378.790802	-378.828682	26.199
N          0.01440        1.40150        0.21250
C         -0.00110        0.02780        0.07210
C         -1.20250       -0.68060        0.01630
C         -1.14210       -2.06950       -0.07010
O         -2.30310       -2.75910       -0.12480
N         -0.01890       -2.78150       -0.10730
C          1.12520       -2.08570       -0.05430
C          1.19920       -0.70890        0.03370
H          0.86030        1.87170       -0.06910
H         -0.82350        1.89150       -0.06000
H         -2.16350       -0.18040        0.04180
H         -2.04550       -3.68980       -0.18180
H          2.03850       -2.67510       -0.08700
H          2.15970       -0.20760        0.07680
