15
gdb 20415	6.09633	1.52002	1.29182	3.1688	67.85	-0.211	0.0305	0.2415	918.6715	0.121714	-358.82739	-358.820713	-358.819769	-358.858796	24.955
C          0.43200        0.46280       -0.71550
C          0.26720        1.67510        0.13080
N          0.81590        0.45380        0.70550
C          0.03040       -0.26170        1.61300
C         -0.88830        0.12140        2.57380
C         -1.24960       -1.08650        3.21210
N         -0.62070       -2.13790        2.70180
N          0.15800       -1.60900        1.72810
H         -0.46980       -0.07660       -0.99370
H          1.25790        0.38740       -1.41570
H          0.96580        2.50190        0.04960
H         -0.74760        1.94970        0.40690
H         -1.22830        1.12110        2.78680
H         -1.94880       -1.22660        4.02390
H          0.77290       -2.20590        1.20160
