12
gdb 11170	4.31636	1.61201	1.40684	4.5939	56.17	-0.2795	-0.014	0.2655	855.271	0.085078	-414.678492	-414.671819	-414.670875	-414.710001	23.552
N         -0.11260        1.27840       -0.12220
C          0.00450        0.04290        0.03400
O          1.15130       -0.67790        0.20540
C          0.82200       -2.02110        0.54280
C         -0.64050       -2.13930        0.05970
O         -1.08140       -0.78750        0.05520
C         -0.75690       -2.73820       -1.28090
N         -0.83520       -3.23760       -2.31900
H          0.79340        1.73650       -0.06590
H          1.50630       -2.69940        0.03320
H          0.88810       -2.16390        1.62650
H         -1.26640       -2.70450        0.75420
