17
gdb 5636	3.30133	1.9245	1.33936	1.2249	70.53	-0.1784	0.0616	0.24	936.6269	0.142668	-363.897404	-363.889302	-363.888357	-363.930159	29.998
C          0.00920        1.55560        0.03950
C         -0.02140        0.02540       -0.00270
N         -1.36860       -0.52070        0.01860
C         -2.06240       -0.95700        1.13690
C         -3.31780       -1.33680        0.74160
C         -3.41540       -1.12320       -0.66810
C         -2.19860       -0.61990       -1.06280
O         -1.70350       -0.22220       -2.26790
H          1.04350        1.91420        0.04240
H         -0.49680        1.97260       -0.83520
H         -0.48930        1.92990        0.93850
H          0.47900       -0.33540       -0.90600
H          0.51180       -0.39420        0.85550
H         -1.58310       -0.96140        2.10230
H         -4.08970       -1.73380        1.38270
H         -4.26390       -1.31800       -1.30590
H         -2.36960       -0.40190       -2.93770
