11
gdb 8791	4.64771	1.28395	1.01232	4.7037	53.84	-0.2843	-0.1361	0.1482	1038.8558	0.068751	-434.542157	-434.533789	-434.532845	-434.575914	27.313
O          0.00260        1.41710        0.00940
C         -0.00550        0.01920        0.00200
C         -1.44030       -0.46160        0.01310
O         -2.41720        0.23750        0.02620
C         -1.60280       -1.99370        0.00660
O         -0.67210       -2.75770       -0.00650
C         -2.99850       -2.46380        0.01760
N         -4.07590       -2.88240        0.02580
H          0.91750        1.71340        0.00130
H          0.48150       -0.42200       -0.88470
H          0.49840       -0.43130        0.87440
