16
gdb 17004	3.547	2.30844	2.17203	1.0031	62.72	-0.2279	0.0515	0.2794	721.294	0.131612	-383.671744	-383.66549	-383.664546	-383.701875	25.009
C          0.07270        1.60630       -0.27110
C          1.29800        0.78320        0.00830
C          1.90900        0.63800        1.38570
C          0.91550       -0.34760        2.08550
O         -0.34500       -0.24310        1.38130
C         -0.05400        0.14040        0.08040
C          0.46600       -0.76880       -1.03820
O          1.71000       -0.00730       -1.12210
H         -0.23470        2.28410        0.51710
H         -0.12030        1.94250       -1.28550
H          2.91770        0.22350        1.32950
H          1.96180        1.59370        1.91400
H          1.28950       -1.37880        2.02310
H          0.72640       -0.11390        3.13690
H          0.65120       -1.79400       -0.69870
H         -0.07660       -0.78160       -1.99000
