7
gdb 325	8.71899	2.49294	1.93864	1.4415	38.68	-0.2978	-0.1503	0.1475	551.5682	0.035739	-320.029854	-320.024005	-320.023061	-320.059734	18.042
O         -0.07790        0.00620        0.00120
C         -0.01680        1.19990        0.00690
C          1.35360        1.92440       -0.00060
O          2.40140        1.34160       -0.01210
C          1.25520        3.39470        0.00790
N          1.11410        4.54280        0.01490
H         -0.90360        1.86630        0.01760
