17
gdb 2147	3.69315	2.83267	1.9254	1.4225	64.97	-0.245	0.0188	0.2638	717.8522	0.149007	-309.730966	-309.723982	-309.723037	-309.761531	26.867
C         -0.08710        1.59280        0.04810
C          0.08440        0.07260        0.01620
C          0.91080       -0.47160       -1.13340
C          1.66120       -1.50910       -0.76020
C          1.46190       -1.83290        0.70380
C          0.81870       -0.53460        1.25170
O          1.80530        0.34100        1.78070
H          0.87700        2.10340        0.11200
H         -0.59880        1.94130       -0.85510
H         -0.68100        1.90340        0.91320
H         -0.91830       -0.38100       -0.03330
H          0.85080       -0.06650       -2.13830
H          2.30620       -2.08740       -1.41260
H          0.79090       -2.69540        0.82460
H          2.38330       -2.06860        1.24680
H          0.13370       -0.71960        2.08320
H          2.46040        0.48500        1.08760
