18
gdb 17920	3.22372	2.18653	2.08495	2.4928	65.75	-0.2472	0.0841	0.3314	779.6342	0.156524	-384.949535	-384.942932	-384.941988	-384.979973	26.345
C         -0.10920        1.53950        0.01930
C          0.04980        0.02360        0.00420
C          1.06750       -0.59460       -0.99080
C          2.39180       -0.06800       -0.40400
O          2.14580       -0.06410        1.01880
C          0.83840       -0.59820        1.16730
O          0.84010       -1.98500        0.87460
C          0.96440       -2.06880       -0.56370
H          0.83260        2.04600        0.24200
H         -0.47890        1.90540       -0.94430
H         -0.83330        1.84030        0.78370
H         -0.92670       -0.46130       -0.09110
H          0.91910       -0.40470       -2.05390
H          3.24010       -0.72440       -0.63060
H          2.63810        0.94690       -0.73700
H          0.51180       -0.44970        2.19540
H          0.08130       -2.56880       -0.98200
H          1.85510       -2.65460       -0.81880
