19
gdb 18637	2.70801	2.19723	1.75251	2.0663	70.14	-0.2185	0.0643	0.2828	857.6799	0.166719	-365.037851	-365.029957	-365.029013	-365.069992	29.988
C          0.06090        1.66320        0.18180
C          0.02520        0.16600       -0.03920
C          0.52730       -0.56050       -1.23830
C          1.45680        0.13240       -2.22160
O          0.76320        1.17690       -2.89710
C          2.66300        0.61530       -1.36870
C          2.51470       -0.09690       -0.00280
N          1.18600       -0.73970        0.07130
H          0.75600        2.19090       -0.46880
H         -0.93430        2.07380       -0.01680
H          0.30630        1.89210        1.22560
H         -0.84570       -0.29030        0.43110
H         -0.03670       -1.40900       -1.61740
H          1.79310       -0.61510       -2.95490
H          1.33550        1.50910       -3.59590
H          3.61690        0.37320       -1.84630
H          2.61810        1.70330       -1.27490
H          3.25800       -0.89330        0.10470
H          2.65250        0.58500        0.84270
