17
gdb 18007	5.06908	1.49125	1.33943	2.2334	71.23	-0.2441	0.03	0.2741	968.7034	0.142686	-363.842838	-363.835327	-363.834383	-363.875093	27.388
C          0.16950        1.41570       -0.12580
N          0.38150       -0.02490       -0.14390
C          0.56570       -0.62950        0.93430
O          0.61920       -0.14730        2.24360
C          0.90610       -1.48050        2.76170
C         -0.37230       -2.22880        3.19210
C         -0.50720       -2.81040        1.74880
C          0.80070       -2.06680        1.32610
H          0.89770        1.89250       -0.79090
H         -0.82430        1.63730       -0.53130
H          0.25020        1.86870        0.86920
H          1.79330       -1.47780        3.39450
H         -0.19030       -2.99290        3.95180
H         -1.17320       -1.57150        3.53560
H         -0.39950       -3.89600        1.71420
H         -1.39900       -2.53110        1.18530
H          1.57640       -2.61940        0.80040
