11
gdb 2115	3.83508	3.46633	1.84132	4.9769	53.59	-0.2347	-0.0951	0.1396	628.4655	0.078667	-343.291812	-343.286071	-343.285127	-343.321538	20.753
O          0.00380        0.00850        0.00410
C         -0.03380        1.20660        0.01090
C         -1.27230        2.10480        0.03220
C         -0.68360        3.49270        0.03160
C          0.65910        3.51820        0.01390
C          1.20900        2.15060       -0.00050
O          2.35740        1.78360       -0.01770
H         -1.91060        1.91140       -0.83840
H         -1.88700        1.90220        0.91760
H         -1.31330        4.37620        0.04460
H          1.28370        4.40200        0.01020
