15
gdb 7724	3.30536	1.93585	1.27196	3.105	62.72	-0.2599	-0.025	0.2349	906.9158	0.121259	-399.891613	-399.884771	-399.883827	-399.922941	25.704
O          0.00630       -0.07200       -0.01350
C         -0.05440        1.13490        0.01540
C         -1.35170        1.92210        0.06470
C         -1.19120        3.29310        0.72860
C         -0.05060        4.07410        0.06880
C          1.24930        3.29110        0.01960
O          2.34630        3.79820       -0.00580
N          1.10880        1.90390       -0.01360
H         -1.69340        2.04260       -0.97260
H         -2.09010        1.29420        0.56750
H         -2.12500        3.85780        0.65820
H         -0.97980        3.16320        1.79650
H         -0.31420        4.32340       -0.96830
H          0.16150        5.01820        0.57460
H          1.97560        1.37990       -0.05480
