16
gdb 21027	3.61193	1.84092	1.24062	1.212	69.4	-0.2043	0.0145	0.2188	968.5434	0.131439	-376.117896	-376.109409	-376.108465	-376.151773	29.457
C         -0.03160        1.37400        0.06640
N          0.03690       -0.06800        0.02760
N         -0.04900       -0.75510       -1.10170
C         -0.02090       -2.03480       -0.71810
C         -0.09270       -3.17350       -1.68010
C          0.08450       -2.05470        0.69080
N          0.08230       -3.15810        1.54090
N          0.12090       -0.80230        1.14370
H          0.77870        1.76560        0.68580
H          0.07080        1.73500       -0.95620
H         -0.98840        1.70810        0.48090
H          0.83030       -3.76740       -1.68390
H         -0.91450       -3.85430       -1.43070
H         -0.25180       -2.79710       -2.69260
H          0.63440       -3.93190        1.19550
H          0.36900       -2.91130        2.47940
