17
gdb 20796	3.08456	1.82644	1.24916	2.3345	70.89	-0.1969	0.0285	0.2255	986.8664	0.144075	-360.064178	-360.055799	-360.054855	-360.097738	29.963
C          0.10110        1.55230        0.20170
C          0.00380        0.02620        0.01590
C         -1.39550       -0.49040       -0.07240
C         -2.19520       -0.76320       -1.17200
N         -1.80660       -0.65420       -2.52850
C         -3.41360       -1.23080       -0.62800
N         -3.38830       -1.25270        0.70340
N         -2.16680       -0.78730        1.01250
H          1.14640        1.87360        0.24950
H         -0.37890        2.08120       -0.62770
H         -0.39400        1.87110        1.12440
H          0.52280       -0.26490       -0.90420
H          0.53070       -0.47320        0.83890
H         -1.61730        0.30420       -2.80010
H         -2.52840       -1.00870       -3.14400
H         -4.29710       -1.56140       -1.15630
H         -1.90670       -0.71180        1.98120
