17
gdb 5713	4.60286	1.95353	1.41986	1.495	74.65	-0.196	0.0456	0.2416	869.3886	0.146502	-326.774105	-326.767717	-326.766773	-326.804326	25.858
C          0.12140        1.42970       -0.36660
C          1.41240        2.01250        0.28660
C          2.13840        0.76590        0.70920
C          3.37620        0.34240        1.12380
N          3.26860       -1.00930        1.37690
C          1.98540       -1.44970        1.12740
C          1.26710       -0.35680        0.71140
C         -0.12150        0.03610        0.29050
H         -0.73900        2.09770       -0.26890
H          0.30210        1.28740       -1.43740
H          1.97090        2.64720       -0.40910
H          1.16030        2.64080        1.15200
H          4.31540        0.85470        1.25900
H          4.03010       -1.59970        1.66140
H          1.72240       -2.48630        1.26570
H         -0.79100        0.12660        1.15700
H         -0.59910       -0.66420       -0.40250
