14
gdb 2841	5.11225	1.71493	1.44211	2.0081	59.99	-0.2482	0.0294	0.2776	831.6174	0.11275	-324.504178	-324.496856	-324.495912	-324.535758	26.523
O          0.02570        1.35070       -0.40660
C          0.01590        0.13740        0.32600
C         -1.34520       -0.51610        0.26200
N         -1.69050       -1.05720       -1.05940
C         -1.52830       -1.99160        0.08270
C         -0.43360       -2.92290        0.04010
C          0.46080       -3.72620        0.03410
H         -0.21390        1.11500       -1.31070
H          0.77520       -0.56630       -0.04050
H          0.26510        0.39550        1.36030
H         -2.13140       -0.00280        0.81270
H         -2.68090       -0.93430       -1.25310
H         -2.44100       -2.40260        0.50960
H          1.25700       -4.42890        0.01930
