14
gdb 3208	3.87652	3.19642	2.05101	3.6287	58.22	-0.235	0.0136	0.2486	648.7055	0.113804	-324.566515	-324.56009	-324.559146	-324.59675	23.436
C         -0.10170        1.33220       -0.19590
N         -0.03440       -0.03190        0.28430
C         -1.06140       -1.07110        0.18560
C         -0.97230       -1.79600       -1.12290
C          0.02330       -2.11160       -0.00370
C          1.00580       -0.94420        0.06760
O          2.18970       -0.78380       -0.04620
H          0.92070        1.71380       -0.25380
H         -0.56120        1.40080       -1.19190
H         -0.67080        1.96220        0.49490
H         -1.90510       -1.09340        0.86280
H         -1.71210       -2.57070       -1.30530
H         -0.63870       -1.27160       -2.01370
H          0.12260       -3.09210        0.43820
