18
gdb 15772	4.49386	1.10555	0.96083	1.7879	73.8	-0.2608	0.0535	0.3143	1215.0367	0.151227	-347.75176	-347.742825	-347.741881	-347.785538	32.363
C         -0.03750        1.74770        0.20160
C         -0.07600        0.23130       -0.01760
C          0.71680       -0.54130        1.06770
C          2.13720       -0.21730        1.09080
C          3.30700        0.06090        1.08760
C         -1.50310       -0.27180       -0.04290
C         -2.23590       -0.50310       -1.29290
O         -1.70930       -1.59720       -0.53790
H          0.99460        2.10520        0.23320
H         -0.56170        2.27480       -0.60150
H         -0.51590        2.02050        1.14980
H          0.37820       -0.00530       -0.98700
H          0.27730       -0.33290        2.05320
H          0.58670       -1.61540        0.89090
H          4.34240        0.29520        1.09660
H         -2.08900       -0.04190        0.85110
H         -3.32210       -0.42700       -1.31110
H         -1.74160       -0.31340       -2.24510
