10
gdb 2962	4.00784	2.56243	1.74321	3.6984	49.02	-0.3012	-0.1001	0.2011	669.2971	0.065438	-359.29838	-359.29191	-359.290965	-359.329244	21.6
O          1.01400        1.17140       -1.76570
C          0.25970        1.52240       -0.89530
C          0.64950        1.44010        0.52990
N          0.97310        1.33400        1.63450
C         -1.11180        2.05590       -1.15340
C         -2.24160        1.65960       -0.28220
O         -1.64200        2.93910       -0.16990
H         -1.29500        2.31150       -2.19460
H         -3.23550        1.63620       -0.72460
H         -2.07000        0.98660        0.55540
