16
gdb 19563	4.06486	2.12188	1.93424	1.7272	68.59	-0.2301	0.012	0.242	753.5874	0.131796	-346.541927	-346.535915	-346.534971	-346.571665	24.916
C          0.04260        1.48900        0.00980
O          1.22040        0.64630       -0.00670
C         -0.03210        0.03310        0.00260
C         -0.60220       -0.97720        1.03750
C         -1.78660       -1.09960        0.01400
C         -0.62300       -0.96590       -1.03170
C          0.20230       -2.21130       -0.68070
C          0.21590       -2.21850        0.65650
H         -0.11340        2.04360        0.93420
H         -0.13190        2.05360       -0.90520
H         -0.75020       -0.73210        2.08780
H         -2.32820       -2.04670        0.01430
H         -2.46950       -0.24450        0.02550
H         -0.79210       -0.70930       -2.07610
H          0.67710       -2.87970       -1.38380
H          0.70480       -2.89440        1.34250
