18
gdb 14200	3.52756	2.26706	2.07765	1.2826	70.54	-0.2477	0.0788	0.3266	755.773	0.156084	-347.771617	-347.765394	-347.76445	-347.801399	26.508
O         -0.12520        1.36570       -0.04120
C         -0.02590       -0.02290        0.01510
C          0.43110       -0.79380        1.28920
C         -0.40370       -1.92210        0.66670
C          0.00100       -2.11340       -0.86470
C         -1.45240       -1.71700       -1.24560
C         -1.36650       -0.86930        0.03090
C          0.74340       -0.78050       -1.09230
H          0.76250        1.73130       -0.12260
H          1.50430       -0.93000        1.46260
H         -0.05120       -0.40560        2.19110
H         -0.75500       -2.79400        1.21470
H          0.46280       -3.03050       -1.23020
H         -1.61530       -1.23380       -2.21480
H         -2.16090       -2.54130       -1.12080
H         -2.21520       -0.43350        0.55620
H          0.57430       -0.37010       -2.09220
H          1.82060       -0.82230       -0.90020
