12
gdb 20147	4.524	2.68402	2.19396	4.6032	55.3	-0.2522	-0.0218	0.2305	617.9953	0.085434	-377.46003	-377.455022	-377.454078	-377.489025	20.24
O          0.00470        0.01720        0.16190
C         -0.01390        1.19490        0.02460
N         -1.20000        2.02740       -0.07210
C         -0.83320        3.33340        0.51750
C         -0.83360        3.16260       -0.94670
C          0.74040        3.18700       -0.95000
C          0.74080        3.35780        0.51420
N          1.14550        2.06380       -0.07710
H         -1.51450        3.81680        1.20240
H         -1.51540        3.47550       -1.72400
H          1.40880        3.52080       -1.73020
H          1.40970        3.86210        1.19620
