18
gdb 15775	4.51642	1.09451	0.95557	3.043	72.18	-0.2575	0.0319	0.2894	1209.7127	0.153787	-343.977517	-343.968872	-343.967928	-344.011141	30.996
C          0.16580        1.72660       -0.06680
C          0.02620        0.20520        0.06810
C          0.60180       -0.53420       -1.16840
C         -0.09870       -0.20520       -2.40740
N         -0.67100        0.06600       -3.37420
C          0.71170       -0.30610        1.31980
C         -0.01450       -0.37470        2.60950
N          0.35910       -1.61310        1.89790
H          1.22090        2.01940       -0.11410
H         -0.32520        2.08960       -0.97390
H         -0.28340        2.23200        0.79250
H         -1.04070       -0.04700        0.13810
H          1.66290       -0.28400       -1.28920
H          0.55100       -1.61800       -1.01630
H          1.78290       -0.10570        1.35260
H          0.51080       -0.20680        3.54500
H         -1.06050       -0.07770        2.61840
H         -0.46160       -1.98890        1.42590
