14
gdb 10001	2.73599	1.49025	1.02518	2.5966	62.27	-0.2603	-0.051	0.2093	1078.9582	0.105376	-415.884824	-415.87637	-415.875426	-415.91931	27.971
N          0.12420        1.18460        0.07940
C         -0.04770       -0.07110        0.09880
N         -1.30960       -0.66510       -0.00290
C         -1.42460       -2.11500        0.06570
C         -1.26450       -2.64870        1.48360
O         -0.75410       -3.70440        1.74330
C         -2.46190        0.09340       -0.18920
O         -3.56410       -0.39330       -0.28620
H          1.11260        1.41210        0.15490
H          0.74460       -0.82260        0.19100
H         -2.43740       -2.36130       -0.27280
H         -0.70380       -2.60760       -0.59260
H         -1.67440       -1.97660        2.27090
H         -2.24330        1.16750       -0.23870
