13
gdb 20349	5.18276	2.13377	1.52568	3.8107	65.55	-0.2463	-0.0308	0.2155	762.3892	0.098357	-361.461789	-361.456347	-361.455403	-361.491162	21.701
C         -0.06760        1.53340        0.01090
C          1.41550        1.89070       -0.00120
C          2.21500        0.80730       -0.01480
C          1.36230       -0.37620       -0.01320
N          1.51920       -1.67470       -0.02180
O          0.20270       -2.16800       -0.01210
C         -0.67560       -1.13630        0.00200
C         -0.00380        0.03450        0.00210
H         -0.57020        1.94280        0.89650
H         -0.58690        1.95250       -0.86030
H          1.75660        2.91880        0.00120
H          3.29580        0.80200       -0.02510
H         -1.71550       -1.42320        0.01030
