15
gdb 19319	4.91331	1.68665	1.50096	1.7095	72.35	-0.2085	0.0342	0.2427	851.81	0.118381	-325.403211	-325.396504	-325.395559	-325.433687	27.161
C          0.04910       -1.19210       -0.03590
C          0.02770        0.01250       -0.02340
C         -0.01730        1.42870        0.02480
C          0.23030        2.33610       -1.16690
C          1.15060        2.44160        0.00910
C          0.49980        3.17300        1.21600
N         -0.86190        3.62460        0.82570
C         -0.62280        2.22160        1.23460
H          0.07070       -2.25300       -0.05670
H          0.64760        1.81990       -2.02460
H         -0.47340        3.12850       -1.38560
H          2.20400        2.20190       -0.04020
H          1.03810        3.63760        2.03080
H         -1.26170        4.10640        1.63020
H         -1.15130        1.76140        2.05860
