22
gdb 15633	2.89282	1.64691	1.19383	0.2434	84.44	-0.224	0.0343	0.2583	1114.0756	0.20088	-313.098977	-313.090148	-313.089203	-313.132245	33.299
C          0.15830        1.48160       -0.15050
C         -0.11220       -0.01390        0.09610
C          0.63920       -0.57020        1.27150
C          0.10530       -1.01130        2.41300
C          1.14220       -1.43480        3.42370
C          2.43150       -1.50820        2.57160
C          2.16320       -0.63180        1.32010
C          2.83350       -1.16970        0.05000
H          1.21790        1.67210       -0.34950
H         -0.41150        1.84330       -1.01210
H         -0.12800        2.07800        0.72150
H         -1.18620       -0.16750        0.25070
H          0.15150       -0.57210       -0.81260
H         -0.95960       -1.02710        2.62540
H          1.22650       -0.69110        4.22990
H          0.90650       -2.38700        3.91300
H          3.32800       -1.20150        3.11760
H          2.59050       -2.54310        2.24670
H          2.54880        0.38530        1.49370
H          2.45830       -2.16980       -0.19540
H          2.65440       -0.52180       -0.81430
H          3.91770       -1.24370        0.18620
