17
gdb 17026	6.92969	1.31046	1.26604	1.1176	76.27	-0.2198	0.0416	0.2614	996.3149	0.141449	-326.60879	-326.6014	-326.600456	-326.639993	28.974
C         -0.62730       -1.20520        0.20060
C         -0.36330       -0.03170        0.20940
C         -0.07230        1.38380        0.18460
C         -0.03910        2.21810        1.50970
C          1.27250        1.48060        1.90060
C          1.38720        1.90560        0.40950
N          0.73490        3.24630        0.70210
C          1.50600        4.25900        1.41400
H         -0.85820       -2.24160        0.19570
H         -0.58310        1.90690       -0.62620
H         -0.89120        2.49360        2.13340
H          1.93080        1.97490        2.61350
H          1.20000        0.41220        2.11000
H          2.23150        1.80950       -0.27530
H          2.19310        4.72960        0.70290
H          0.81490        5.03260        1.76470
H          2.09660        3.91850        2.27780
