13
gdb 15298	6.15868	0.99411	0.90871	2.0974	60.27	-0.2801	-0.0627	0.2174	1176.6582	0.093486	-398.591132	-398.583323	-398.582379	-398.62438	26.552
O         -0.42620        0.39590        0.73280
C          0.34980        0.79470       -0.09570
C          1.11650        2.07100        0.05760
O          2.29840        2.19870       -0.74460
C          1.22150        3.06330       -1.03960
C          0.52860        2.90080       -2.38570
C          1.19710        3.67540       -3.43140
N          1.72650        4.29960       -4.24610
H          0.56520        0.23310       -1.03040
H          1.19120        2.43320        1.08170
H          1.37660        4.10010       -0.73970
H          0.50670        1.84880       -2.68210
H         -0.51000        3.24350       -2.30690
