19
gdb 15991	3.30431	1.66944	1.2664	2.0671	72.5	-0.2399	0.0751	0.315	1015.8034	0.165382	-365.01235	-365.004154	-365.00321	-365.045126	30.351
C          0.16780        1.50840       -0.22200
O         -0.32830        0.22840       -0.54880
C          0.61960       -0.60060       -1.16170
C          1.69450       -1.33220       -0.29780
C          1.40930       -2.62930       -1.11490
C          0.10540       -1.97570       -1.58010
C         -1.28160       -2.44230       -1.38090
N         -0.69770       -2.33870       -2.73720
H          0.98610        1.45730        0.51110
H          0.53670        2.03960       -1.11350
H         -0.65820        2.07670        0.21220
H          1.09390       -0.07540       -2.00910
H          2.71240       -0.93870       -0.31260
H          1.35000       -1.41990        0.73570
H          2.11440       -2.77060       -1.93900
H          1.32720       -3.56360       -0.55630
H         -1.46810       -3.45860       -1.04350
H         -2.01620       -1.70590       -1.06920
H         -1.04370       -1.49840       -3.19650
