24
gdb 13403	5.20171	0.93739	0.84103	0.0794	85.35	-0.2977	0.0832	0.3809	1470.3482	0.224911	-314.299918	-314.290574	-314.289629	-314.335839	34.064
C          0.06750        1.57390        0.17190
C         -0.00310        0.05130        0.02520
C          0.68190       -0.46030       -1.24820
C          0.67970       -1.98300       -1.40300
C         -0.70850       -2.62960       -1.58230
C         -0.42680       -4.03840       -2.15910
C          0.99560       -3.96360       -2.79170
C          1.43720       -2.49320       -2.64210
H          1.10680        1.92000        0.20470
H         -0.41930        2.07590       -0.67180
H         -0.42520        1.91240        1.08890
H          0.46250       -0.42250        0.90000
H         -1.05300       -0.26660        0.03170
H          0.19640       -0.01130       -2.12740
H          1.72030       -0.10020       -1.26090
H          1.15100       -2.42360       -0.51050
H         -1.29240       -2.66460       -0.65840
H         -1.28550       -2.03320       -2.30180
H         -0.45260       -4.79250       -1.36640
H         -1.18690       -4.33140       -2.88890
H          1.68450       -4.62000       -2.25010
H          1.00670       -4.29290       -3.83440
H          1.12170       -1.90970       -3.51760
H          2.52250       -2.37970       -2.55660
