20
gdb 12363	2.83346	2.00647	1.37933	1.4297	76.18	-0.239	0.0297	0.2686	960.8758	0.178284	-349.024405	-349.016305	-349.015361	-349.056356	31.537
C         -0.13380        1.57700       -0.01060
C          0.02200        0.04400        0.02470
C          0.69180       -0.46610       -1.22920
C          1.92760       -0.96270       -1.27520
C          2.82310       -1.08730       -0.07000
C          2.28780       -0.28150        1.12360
C          0.77390       -0.46820        1.26660
O          0.24840        0.20400        2.40460
H          0.83880        2.07690       -0.04880
H         -0.69220        1.87830       -0.90290
H         -0.66870        1.93040        0.87270
H         -0.99210       -0.37670        0.06650
H          0.10800       -0.39560       -2.14480
H          2.33180       -1.31070       -2.22320
H          2.92020       -2.14880        0.20340
H          3.83960       -0.76050       -0.32240
H          2.78880       -0.59460        2.04880
H          2.50670        0.78390        0.99060
H          0.57310       -1.55030        1.34720
H          0.72850       -0.10660        3.17860
