19
gdb 13777	3.35735	1.30591	1.05151	3.1313	73.07	-0.2479	-0.0266	0.2213	1160.0386	0.163658	-365.053346	-365.044308	-365.043363	-365.087311	32.604
C         -0.65300        2.44040        1.30700
C         -0.63310        1.35590        0.22050
C          0.41450        0.27340        0.51360
C         -2.01490        0.74180        0.08660
N         -3.01150        1.45260       -0.69960
C         -2.56170        0.12440       -1.17350
C         -1.79790        0.11690       -2.45140
O         -1.66720       -0.86180       -3.14430
H          0.32560        2.92200        1.39750
H         -1.39330        3.21140        1.07400
H         -0.90360        2.01220        2.28530
H         -0.38530        1.83860       -0.73140
H          0.19480       -0.24220        1.45610
H          0.44540       -0.48050       -0.27940
H          1.41300        0.71220        0.60300
H         -2.35970        0.24650        0.99670
H         -3.93870        1.37980       -0.29060
H         -3.21340       -0.73720       -1.04940
H         -1.35700        1.09840       -2.72930
