12
gdb 2512	3.53516	2.15993	1.40852	2.8869	56.12	-0.2834	0.0066	0.29	803.836	0.088524	-323.343769	-323.336261	-323.335317	-323.375443	26.128
O          0.08480        1.40410       -0.01680
C          0.05520        0.00250       -0.04220
C         -1.40820       -0.54880       -0.00210
C         -1.43630       -2.00450       -0.10490
C         -1.40620       -3.20000       -0.20630
C         -2.06160       -0.06850        1.22500
N         -2.52100        0.36010        2.19470
H         -0.18350        1.70110        0.86050
H          0.50170       -0.31440       -0.98770
H          0.62390       -0.45370        0.77860
H         -1.94120       -0.10220       -0.85150
H         -1.39610       -4.25880       -0.29350
