13
gdb 4679	5.87172	1.39196	1.13315	5.1787	70.66	-0.2397	-0.0408	0.1988	988.202	0.096213	-361.516351	-361.50932	-361.508376	-361.547821	25.208
C          0.13300        1.44070        0.04980
C         -0.06430       -0.03020       -0.01030
C         -1.16280       -0.82240       -0.19250
C         -0.70700       -2.17010       -0.15140
C          0.64280       -2.10690        0.05380
O          1.04300       -0.80060        0.14110
C          1.62670       -3.10840        0.18190
N          2.41990       -3.94720        0.28450
H          0.82030        1.78060       -0.73230
H         -0.82350        1.94940       -0.08490
H          0.55560        1.74490        1.01340
H         -2.17520       -0.48070       -0.33840
H         -1.28920       -3.07130       -0.25790
