12
gdb 23776	3.32382	2.277	1.35129	7.0692	60.26	-0.2209	-0.0208	0.2	809.5297	0.085393	-422.672687	-422.666465	-422.665521	-422.703033	23.723
F         -0.02280        0.02850        0.00430
C         -0.02880        1.35770        0.01110
C         -1.21250        2.01210        0.03000
N         -1.24190        3.38470        0.03720
C         -0.08400        4.10730        0.02570
C          1.12620        3.49640        0.00670
C          1.27200        2.04240       -0.00260
O          2.33990        1.44400       -0.01960
H         -2.16180        1.49310        0.03980
H         -2.12950        3.85700        0.05140
H         -0.20490        5.18380        0.03270
H          2.03320        4.08790       -0.00230
