20
gdb 17816	4.01327	1.46765	1.29237	1.6394	75.14	-0.2455	0.0799	0.3253	1035.4148	0.177394	-348.974472	-348.966254	-348.96531	-349.007496	30.508
C          0.08870        1.54620       -0.17080
C          0.07890        0.04110       -0.00010
C          1.35900       -0.76350       -0.04560
C          0.58670       -0.64900        1.24550
C          1.15850        0.07910        2.43720
C          2.17910       -0.69020        3.31270
C          3.11120        0.50090        3.02480
O          2.15530        1.08450        2.11480
H          0.96420        1.99460        0.30260
H          0.09750        1.81220       -1.23390
H         -0.80470        2.00010        0.27380
H         -0.78160       -0.44500       -0.45490
H          1.37140       -1.71180       -0.57210
H          2.28320       -0.19810       -0.10080
H          0.02350       -1.52760        1.55600
H          0.34750        0.53290        3.02590
H          1.90160       -0.85230        4.35510
H          2.50560       -1.63250        2.86900
H          3.30460        1.15810        3.88240
H          4.06230        0.27490        2.52960
