14
gdb 1109	5.61461	1.79045	1.37102	5.6702	56.17	-0.2454	0.0094	0.2548	846.5743	0.113783	-357.949026	-357.941268	-357.940324	-357.980991	27.526
C         -0.02110        1.50310       -0.05790
C          0.16050        0.00680        0.00830
N          1.31270       -0.51850       -0.03720
N         -1.07460       -0.67650        0.11400
C         -1.24660       -2.04940        0.21800
N         -2.57450       -2.42900        0.32420
O         -0.33340       -2.85130        0.25590
H          0.95850        1.97080       -0.14380
H         -0.63360        1.79010       -0.92080
H         -0.52000        1.88090        0.84280
H          1.24280       -1.53510        0.02980
H         -1.89530       -0.09970        0.21040
H         -3.28160       -1.86500       -0.12190
H         -2.70520       -3.42370        0.21910
