18
gdb 8504	3.79042	2.08126	1.62327	1.4829	72.43	-0.2189	0.0779	0.2968	852.3276	0.153913	-343.882961	-343.875606	-343.874662	-343.913925	29.043
C          0.01840        1.43480       -0.07320
C          0.00880       -0.06160       -0.04460
N          0.59740       -0.93590       -1.11740
C          0.05860       -1.92140       -0.11830
C          0.15750       -3.40770       -0.28090
C          0.50580       -1.01730        1.08120
N         -0.82480       -0.99440        1.77180
C         -1.16740       -1.03280        0.31250
H          1.04000        1.81210       -0.18240
H         -0.57720        1.81970       -0.90830
H         -0.40400        1.82430        0.85790
H         -0.00090       -0.91760       -1.94970
H          1.19950       -3.71120       -0.42230
H         -0.23350       -3.92000        0.60550
H         -0.41790       -3.75170       -1.14750
H          1.46370       -1.00230        1.60300
H         -1.01340       -1.90300        2.20430
H         -2.19260       -1.03570       -0.06780
