17
gdb 15571	3.34432	1.79934	1.23011	5.2737	75.4	-0.2076	-0.0282	0.1794	967.9893	0.143227	-363.893788	-363.885997	-363.885053	-363.92595	28.756
C         -0.19480        1.54990       -0.02770
C          0.04500        0.03750       -0.01100
C          0.92110       -0.46620       -1.19670
N          1.76830       -1.51110       -0.59310
C          1.76900       -1.34830        0.76230
C          0.81470       -0.48770        1.19650
C          0.51930       -0.22960        2.58030
O         -0.37470        0.48980        2.99520
H          0.75530        2.09490       -0.00310
H         -0.73580        1.85040       -0.93190
H         -0.77760        1.84300        0.84690
H         -0.93250       -0.46310       -0.04630
H          0.33480       -0.87100       -2.02570
H          1.54380        0.35230       -1.58600
H          2.60400       -1.81490       -1.06790
H          2.46130       -1.91860        1.37110
H          1.19710       -0.75570        3.29390
