13
gdb 16265	3.33752	2.0441	1.44521	2.0993	67.11	-0.2481	-0.0306	0.2175	838.6343	0.094109	-361.39513	-361.388182	-361.387238	-361.426219	26.207
O         -0.03070        0.01340        0.04480
C         -0.01120        1.20420        0.10910
C         -1.07340        2.31590        0.00990
N          0.00800        3.34370       -0.19150
C          0.77990        3.31320        1.03600
C          1.08890        2.24260        0.02400
C          2.32200        2.13570       -0.67000
C          3.36580        2.00270       -1.25220
H         -1.67690        2.19990       -0.89390
H         -1.72240        2.50580        0.86930
H          1.52410        4.09960        1.11390
H          0.29500        3.04000        1.97180
H          4.28390        1.88770       -1.77360
