12
gdb 49	8.63483	4.11977	2.88825	0.6875	45.37	-0.2392	0.0192	0.2584	452.5112	0.100501	-248.375248	-248.368823	-248.367879	-248.405354	21.616
C         -0.10260        1.49910       -0.00130
C         -0.00520       -0.00340       -0.02720
C         -0.00690       -0.76890        1.26430
N          0.08190       -0.69200       -1.10090
O          0.07440        0.13220       -2.24200
H          0.78340        1.94690       -0.46350
H         -0.96150        1.83610       -0.59020
H         -0.19850        1.87460        1.01930
H         -0.92620       -0.57300        1.82980
H          0.07260       -1.84060        1.07520
H          0.82940       -0.45550        1.90130
H          0.13980       -0.51250       -2.95390
