14
gdb 2166	3.68939	3.11031	1.79971	3.2035	52.83	-0.2438	0.0095	0.2533	681.764	0.115622	-361.752301	-361.745829	-361.744885	-361.78268	23.572
N          0.20360        1.34500        0.47060
C         -0.07750        0.02190       -0.05890
C         -1.55640       -0.27810       -0.31290
C         -1.47630       -1.37480       -1.38240
O         -0.27790       -1.09950       -2.13730
C          0.55320       -0.29350       -1.42670
O          1.60300        0.09740       -1.85040
H          1.21280        1.47500        0.48900
H         -0.14350        2.04630       -0.18020
H          0.32980       -0.71830        0.64490
H         -2.10270       -0.59240        0.57750
H         -2.04870        0.61370       -0.71770
H         -1.38680       -2.37360       -0.93920
H         -2.31410       -1.37690       -2.08210
