15
gdb 20260	3.66679	3.21144	2.51439	0.7175	62.03	-0.2054	0.0682	0.2736	618.1518	0.122076	-362.583991	-362.579071	-362.578127	-362.612647	21.317
C         -0.01440        1.52450        0.00010
C          1.52680        1.49770        0.00940
O          1.99180        1.48240        1.35230
C          1.68810        0.20000        1.84330
C          1.81780       -0.86230        0.79700
C          0.43510       -0.50750        1.35500
N         -0.04070        0.01860        0.04730
C          1.40580       -0.02490       -0.41350
H         -0.49220        2.03950        0.83720
H         -0.44800        1.86160       -0.94660
H          2.10810        2.22490       -0.56110
H          2.02120        0.04370        2.86160
H          2.41940       -1.75900        0.83500
H         -0.23290       -1.05880        2.00880
H          1.60720       -0.33160       -1.43850
