19
gdb 3239	7.76369	1.2696	1.25107	0.0735	71.66	-0.266	0.0981	0.3641	1028.8269	0.172256	-273.758273	-273.750869	-273.749925	-273.790113	27.864
C         -0.15900        1.62550        0.01810
C         -0.18570        0.12740       -0.21010
C         -0.20850       -0.82150        0.96300
C         -1.42850       -0.67120        0.08590
C          1.24110        2.17200        0.21400
C          2.08380        2.55280       -0.97850
C          1.54330        3.62240       -0.05980
H         -0.62790        2.13880       -0.83320
H         -0.77660        1.86520        0.89510
H          0.39640       -0.20040       -1.06790
H          0.36170       -1.74180        0.90040
H         -0.24870       -0.39360        1.96000
H         -2.28320       -0.14250        0.49570
H         -1.69090       -1.48850       -0.57690
H          1.77940        1.72350        1.04530
H          3.14720        2.34120       -0.95440
H          1.63740        2.46200       -1.96400
H          0.73560        4.24560       -0.43040
H          2.23730        4.14070        0.59280
