16
gdb 5543	3.17332	1.97187	1.31177	3.4962	67.37	-0.2066	0.0391	0.2457	934.7172	0.130749	-379.950248	-379.942033	-379.941089	-379.983569	28.778
C          0.02110        0.99310        0.41410
O         -0.52990        0.22870       -0.66120
C          0.36660       -0.51810       -1.34830
C          0.81870       -1.80280       -1.18940
C          0.45510       -2.78340       -0.12390
N          1.70070       -2.10580       -2.21030
C          1.77380       -1.03380       -2.96200
N          0.98840       -0.02650       -2.48380
H          0.51710        0.34360        1.14420
H          0.74380        1.73330        0.04750
H         -0.81540        1.50900        0.88970
H         -0.34120       -2.38390        0.51030
H          0.10440       -3.72310       -0.56320
H          1.31390       -3.02630        0.51230
H          2.36810       -0.92610       -3.85730
H          0.81860        0.87410       -2.89920
