14
gdb 3036	11.03931	1.1156	1.08409	4.048	58.28	-0.2835	0.0344	0.3179	1029.4733	0.113107	-324.569867	-324.562673	-324.561729	-324.601867	24.628
N         -0.07330       -1.11210       -0.08710
C         -0.01190        0.04130       -0.12090
C          0.08950        1.49770       -0.15150
C          1.46900        2.00520        0.32170
C          1.52830        3.51230        0.27840
C          2.71450        4.23710       -0.19090
O          1.56220        4.09950       -1.02530
H         -0.09370        1.84750       -1.17310
H         -0.70660        1.91550        0.47600
H          1.66210        1.65620        1.34210
H          2.24830        1.58680       -0.32210
H          0.86150        4.02690        0.97380
H          2.91200        5.24450        0.17160
H          3.59220        3.67730       -0.51080
