14
gdb 5168	5.49044	1.47456	1.17884	3.4522	63.85	-0.2188	-0.0425	0.1762	948.8085	0.108528	-378.770645	-378.763688	-378.762744	-378.802769	24.825
O         -0.68140        1.75770        0.46860
C          0.24160        1.02380        0.20720
C          1.43450        1.36740       -0.65490
C          1.37730        2.63900       -1.43850
C          2.11500        3.08410       -2.50890
N          1.72530        4.34780       -2.88130
C          0.75920        4.66770       -2.04890
N          0.51490        3.67600       -1.15030
H          0.28510        0.00090        0.64000
H          2.28970        1.35290        0.04430
H          1.61890        0.51130       -1.31740
H          2.90680        2.56360       -3.02780
H          0.20340        5.59330       -2.04930
H         -0.21600        3.61040       -0.45820
