18
gdb 11393	3.49998	1.57838	1.24819	2.6937	69.73	-0.2358	0.0082	0.244	1009.5459	0.153602	-384.944266	-384.936192	-384.935247	-384.977024	30.056
C          0.32640        1.45410       -0.29650
C          0.02380       -0.02110       -0.03310
O          0.55950       -0.83670       -1.08660
C          1.42880       -1.85070       -0.56010
C          2.79280       -1.70560       -1.24410
O          2.65780       -1.75600       -2.64850
C          1.43120       -1.61210        0.92300
C          0.64800       -0.58160        1.21830
H          1.40520        1.63450       -0.28990
H         -0.07260        1.75150       -1.27040
H         -0.13850        2.08340        0.46980
H         -1.07070       -0.15550       -0.01630
H          1.01610       -2.83740       -0.82540
H          3.25640       -0.76250       -0.91140
H          3.45310       -2.53000       -0.95180
H          1.95590       -1.12850       -2.86170
H          2.00610       -2.21310        1.61620
H          0.45330       -0.17270        2.20200
