19
gdb 7804	3.19936	1.78988	1.23011	3.1011	72.51	-0.2181	-0.013	0.2052	1004.7936	0.166517	-365.084376	-365.076593	-365.075648	-365.11641	29.586
C         -0.00920        1.46440        0.01560
N          0.01490        0.01250       -0.03050
C          0.68650       -0.49720       -1.21980
C          0.49940       -2.01050       -1.33090
C          1.04460       -2.72490       -0.08380
C          0.55620       -2.07520        1.19970
O          0.22810       -2.70570        2.17630
C          0.56830       -0.54780        1.19870
H          1.00060        1.91420        0.08260
H         -0.49580        1.85530       -0.88350
H         -0.58310        1.79780        0.88590
H          0.25220       -0.00180       -2.09450
H          1.76970       -0.25040       -1.21700
H         -0.56970       -2.22360       -1.43930
H          1.00170       -2.38500       -2.22860
H          0.79530       -3.78820       -0.05920
H          2.14210       -2.64400       -0.07520
H          1.62300       -0.22940        1.36150
H         -0.01130       -0.20470        2.05940
