17
gdb 1487	4.39281	1.5029	1.19739	3.2661	61.83	-0.2412	-0.0176	0.2235	995.3581	0.144979	-346.857051	-346.848202	-346.847258	-346.891212	29.678
C          0.02570        1.39680       -0.11960
O         -0.02770        0.00790        0.11860
C         -1.32360       -0.56940        0.01350
C         -1.76150       -0.75050       -1.44180
C         -1.24790       -1.91180        0.75380
C         -0.99550       -1.75060        2.23740
O         -1.58250       -2.35920        3.09620
H          1.05100        1.71620        0.08200
H         -0.22140        1.65750       -1.15830
H         -0.65520        1.94870        0.54670
H         -2.05000        0.08540        0.52580
H         -1.80450        0.20720       -1.96820
H         -1.06000       -1.40320       -1.97080
H         -2.75830       -1.19970       -1.48860
H         -2.15920       -2.49880        0.61380
H         -0.40590       -2.47540        0.32780
H         -0.20580       -1.01090        2.48940
