14
gdb 15019	2.70045	1.88723	1.26251	1.8359	68.3	-0.2628	0.0263	0.2892	951.0832	0.103913	-345.297539	-345.289365	-345.288421	-345.330302	29.595
C          0.04850       -1.18680       -0.20890
C          0.05110        0.00730       -0.08660
C          0.01060        1.46790        0.05320
C          1.35630        2.04620        0.09760
C          2.45270        2.53130        0.15520
C         -0.87400        2.08100       -1.04530
C         -0.67300        3.43560       -1.56640
O         -0.29680        2.27700       -2.32210
H          0.06140       -2.24310       -0.31810
H         -0.49020        1.69970        1.00650
H          3.42920        2.94700        0.19850
H         -1.87670        1.65270       -1.05630
H         -1.52580        3.99020       -1.95410
H          0.15800        4.03180       -1.19730
