17
gdb 18874	4.04615	2.09102	1.76321	2.446	66.48	-0.2343	0.0723	0.3066	784.6922	0.144514	-363.818305	-363.811939	-363.810995	-363.848448	25.806
O         -0.06070        1.39980        0.01040
C          0.01940       -0.01090        0.00790
C         -1.41130       -0.55660       -0.04690
C         -1.27720       -0.85970       -1.50440
C          0.26130       -0.63540       -1.40750
C          0.83900       -2.04590       -1.27010
C         -0.25550       -2.75520       -0.42860
N         -1.48410       -1.93540       -0.54750
H          0.83060        1.74800       -0.09370
H          0.67700       -0.36930        0.81550
H         -2.24580       -0.17100        0.52860
H         -1.94750       -0.71350       -2.34240
H          0.75090        0.02470       -2.12370
H          0.95570       -2.52110       -2.25020
H          1.81660       -2.05270       -0.77660
H         -0.47680       -3.75840       -0.80340
H          0.02180       -2.85160        0.62560
