14
gdb 20629	3.97082	1.8675	1.28023	1.4123	70.56	-0.2358	-0.053	0.1828	904.6654	0.107654	-378.706637	-378.699681	-378.698737	-378.737843	25.846
C          0.01160        1.49600       -0.00750
C         -0.07230        0.00580        0.05690
C         -1.15560       -0.74650       -0.20670
C         -1.07980       -2.18640       -0.10030
N         -2.07820       -2.96040       -0.33920
C          0.26050       -2.63340        0.30790
N          1.28420       -1.90110        0.55580
O          1.12660       -0.52430        0.42900
H          0.77700        1.80550       -0.72660
H         -0.94910        1.91830       -0.30570
H          0.29540        1.90590        0.96730
H         -2.08870       -0.28280       -0.49940
H         -1.81300       -3.93910       -0.20590
H          0.45120       -3.69900        0.42560
