20
gdb 6941	4.95691	0.98243	0.91573	2.462	73.02	-0.2526	0.0861	0.3387	1352.6093	0.17361	-386.117509	-386.107739	-386.106795	-386.152272	34.438
C         -0.29710        1.34050       -0.02630
O         -0.17420       -0.05960       -0.08660
C          0.79730       -0.48400       -1.01840
C          0.83100       -1.99010       -0.99790
O          0.00150       -2.69510       -1.92840
C          1.42790       -2.83500       -2.04820
C          2.04070       -2.24840       -3.30370
C          1.95580       -4.20310       -1.66700
H          0.64900        1.82250        0.26960
H         -0.60920        1.76660       -0.99310
H         -1.05920        1.56980        0.72230
H          0.55440       -0.11770       -2.02660
H          1.79060       -0.08310       -0.74510
H          0.80310       -2.39330        0.01640
H          1.58530       -1.29460       -3.57350
H          3.11820       -2.09800       -3.17480
H          1.90080       -2.93780       -4.14340
H          1.79160       -4.91540       -2.48310
H          3.03240       -4.16570       -1.46750
H          1.44800       -4.58080       -0.77650
