9
gdb 21987	5.65943	1.70111	1.30796	2.0828	48.13	-0.3254	-0.1226	0.2028	800.8618	0.048319	-466.511716	-466.505862	-466.504918	-466.542569	19.982
O         -0.06520        0.01460        0.00330
N         -0.00860        1.23820        0.00690
O          0.99280        1.92690        0.00270
C         -1.30000        1.90770        0.01730
N         -1.41530        3.20530        0.02200
O         -2.74650        3.42800        0.03130
N         -3.46920        2.25360        0.03230
C         -2.58040        1.30140        0.02370
H         -2.84480        0.25700        0.02220
