17
gdb 12235	3.42457	1.47708	1.1397	4.0965	65.28	-0.2434	0.038	0.2814	1044.2723	0.141463	-401.018045	-401.009383	-401.008439	-401.051596	30.858
C         -0.13560        1.60880        0.17320
C         -0.00160        0.10100        0.00080
C          0.71300       -0.50780       -1.25590
C          1.34360        0.43000       -2.26830
O          2.11540       -0.38220       -3.14260
N          1.66460       -1.12270       -0.32640
C          1.12120       -0.59540        0.81820
O          1.42470       -0.66010        1.97980
H          0.81500        2.12800        0.02120
H         -0.87170        2.02950       -0.51930
H         -0.46780        1.82840        1.19200
H         -0.96530       -0.38550        0.17920
H          0.10820       -1.24630       -1.79510
H          0.55200        0.97140       -2.81060
H          1.97380        1.17000       -1.75480
H          2.57490        0.19060       -3.76350
H          2.47130       -1.70550       -0.49250
