21
gdb 6332	3.46859	1.21581	1.0367	0.8157	78.2	-0.2382	0.034	0.2722	1258.6043	0.185012	-366.283776	-366.273182	-366.272238	-366.320128	36.598
C         -0.06010        1.48000        0.00230
N         -0.06190        0.02830        0.02410
C          0.52730       -0.59440       -0.91080
C          1.24800       -0.00320       -2.09770
O          0.58080       -1.94420       -0.94260
C         -0.04470       -2.68180        0.13380
C         -1.54030       -2.82630       -0.13310
C          0.68430       -4.01710        0.20050
H          0.95400        1.90640        0.00680
H         -0.58050        1.88870       -0.87660
H         -0.57690        1.85220        0.89090
H          2.07810        0.62770       -1.76300
H          1.63660       -0.79020       -2.74360
H          0.57210        0.63580       -2.67520
H          0.10490       -2.11250        1.05560
H         -2.01580       -1.84460       -0.16900
H         -1.71300       -3.34400       -1.08250
H         -2.01050       -3.40870        0.66590
H          1.75240       -3.86800        0.38040
H          0.27860       -4.62820        1.01240
H          0.56790       -4.57040       -0.73700
