17
gdb 5605	3.31348	1.82998	1.19657	3.3125	71.46	-0.1908	0.0507	0.2415	985.5691	0.142315	-363.886164	-363.877657	-363.876713	-363.920573	29.753
C         -0.02590        1.42350        0.06660
N         -0.00870       -0.02200        0.03010
C         -0.02530       -0.78910       -1.11360
C         -0.00030       -2.11220       -0.74630
C          0.03300       -2.15550        0.67480
C          0.02690       -0.85590        1.12720
C          0.05270       -0.32100        2.52390
O          0.07840       -1.42210        3.41280
H          0.86900        1.82330        0.55740
H         -0.05340        1.80430       -0.95560
H         -0.90760        1.80120        0.59710
H         -0.05350       -0.31710       -2.08320
H         -0.00530       -2.95530       -1.42000
H          0.05840       -3.02820        1.30670
H          0.93550        0.32810        2.67150
H         -0.83150        0.31670        2.70830
H          0.10170       -1.07790        4.30980
