19
gdb 11356	4.29441	1.31353	1.18722	1.1408	73.07	-0.2392	0.0296	0.2688	1111.1835	0.165779	-365.097887	-365.089313	-365.088369	-365.131726	30.647
C          0.32160        0.96620        0.68650
C         -0.37040        0.35270       -0.54140
C          0.59700       -0.24710       -1.51080
N          0.77380        0.10220       -2.71920
C          1.82450       -0.77000       -3.27370
C          2.96890        0.04480       -3.87440
C          2.24630       -1.65960       -2.07060
O          1.35020       -1.27080       -1.00990
H          0.90640        0.21340        1.22080
H          0.99650        1.77510        0.39050
H         -0.42040        1.37910        1.37540
H         -1.06090       -0.43430       -0.21450
H         -0.95140        1.10320       -1.08100
H          1.37650       -1.38100       -4.06770
H          3.43850        0.67120       -3.10870
H          3.73510       -0.61250       -4.29980
H          2.59540        0.69870       -4.66650
H          2.12650       -2.73160       -2.24800
H          3.27420       -1.46760       -1.74250
