15
gdb 2400	5.3036	2.11392	1.86765	1.4581	57.47	-0.2244	0.0673	0.2918	717.7921	0.124295	-345.606939	-345.600104	-345.59916	-345.637704	25.285
O          0.00500        1.43060        0.09160
C          0.02300        0.03480        0.03540
C         -0.51170       -0.78650        1.20470
C         -1.29970       -0.63990       -0.06220
C         -2.65810       -0.00010       -0.30740
C         -2.84310       -1.17240       -1.29710
O         -1.54740       -1.72460       -0.95290
H          0.67740        1.71340        0.72070
H          0.83950       -0.40920       -0.53520
H         -0.03690       -1.74200        1.40250
H         -0.87080       -0.25080        2.07850
H         -3.33720       -0.00310        0.54710
H         -2.62270        0.99870       -0.74380
H         -3.65240       -1.87390       -1.06770
H         -2.89380       -0.89350       -2.35560
