14
gdb 9037	7.93192	0.82506	0.75101	2.4011	63.91	-0.2546	-0.0732	0.1813	1380.1263	0.10388	-415.877723	-415.868792	-415.867848	-415.913429	29.718
N          0.15380        0.97790        0.58870
C         -0.06880       -0.16540       -0.11390
C          1.17550       -0.94870       -0.41680
O          2.26700       -0.62460       -0.01680
N         -1.16680       -0.65070       -0.56280
C         -2.39070        0.06630       -0.29230
C         -3.58150       -0.64560       -0.92320
O         -4.71970       -0.27990       -0.79910
H          1.08890        1.10790        0.94490
H         -0.59800        1.47890        1.02780
H          0.98670       -1.84780       -1.03120
H         -2.59800        0.16510        0.78730
H         -2.36920        1.09600       -0.68930
H         -3.29910       -1.54240       -1.51690
