17
gdb 17700	5.08682	2.03295	1.99137	1.7237	70.96	-0.221	0.0877	0.3087	757.8946	0.143772	-326.646202	-326.640117	-326.639173	-326.67594	25.111
C         -0.11690        1.50660       -0.04490
C          0.10620        0.03420        0.01660
C          0.39810       -1.00340       -1.00340
C          1.24020       -1.88500       -0.06220
C          0.28660       -3.00530        0.42150
C         -0.56720       -1.82790        0.91820
C          0.69860       -0.93290        1.08270
N         -0.93910       -0.99140       -0.30000
H          0.83340        2.05190       -0.06060
H         -0.67560        1.76360       -0.95040
H         -0.69420        1.85670        0.81850
H          0.39210       -0.95550       -2.08570
H          2.29510       -2.04060       -0.27900
H         -0.14340       -3.69040       -0.31470
H          0.71380       -3.56560        1.25930
H         -1.38350       -1.92790        1.63200
H          1.23120       -0.71180        2.00440
