14
gdb 3653	3.58098	3.30023	1.75487	3.368	59.65	-0.2418	-0.0025	0.2393	704.9581	0.113164	-324.58767	-324.580652	-324.579708	-324.619193	24.301
C          0.07680        1.50470        0.01430
C         -0.06140        0.02520       -0.05760
C         -1.12610       -0.82660        0.00520
C         -2.58100       -0.52160        0.17700
C         -0.51140       -2.10550       -0.13460
N          0.78760       -2.03450       -0.26790
O          1.08040       -0.67480       -0.21940
H          0.71610        1.79900        0.85330
H          0.53080        1.90160       -0.89980
H         -0.90020        1.97390        0.14500
H         -3.17220       -0.88780       -0.66960
H         -2.98680       -0.98930        1.08090
H         -2.75610        0.55450        0.25790
H         -0.98580       -3.07800       -0.14130
