18
gdb 8481	2.83899	1.94326	1.55464	1.9113	68.21	-0.2454	0.0748	0.3203	899.5276	0.152157	-384.908644	-384.900268	-384.899324	-384.940819	32.075
C          0.00170        1.57820        0.01020
C         -0.02640        0.07900        0.07190
C          1.16070       -0.78940       -0.30760
C          0.57050       -0.91270        1.06790
O          1.28340       -0.62260        2.21870
C         -0.68890       -1.78530        1.02000
C         -1.29700       -0.79080       -0.02820
O         -2.49850       -0.16400        0.35920
H          0.92790        1.96740        0.44400
H         -0.06550        1.93750       -1.02320
H         -0.83800        2.01290        0.56180
H          1.06370       -1.59000       -1.03990
H          2.10330       -0.25110       -0.34760
H          2.01690       -1.24320        2.29000
H         -0.56700       -2.83450        0.72830
H         -1.25940       -1.73920        1.95230
H         -1.49430       -1.21030       -1.02010
H         -2.38350        0.17800        1.25300
