14
gdb 4764	6.78963	1.33713	1.13174	2.5057	62.56	-0.2102	0.0221	0.2323	1016.2523	0.106613	-415.864258	-415.856265	-415.855321	-415.897909	27.635
C          0.02390        1.37590       -0.06970
N          0.21240       -0.06320       -0.06830
C          0.66240       -0.62660        0.95260
O          1.03040       -0.05150        2.15580
C          1.45830       -1.07980        2.97180
C          1.37030       -2.23570        2.32210
N          1.67520       -3.53400        2.69980
O          0.86880       -1.97370        1.03780
H          0.69890        1.83270       -0.80330
H         -0.99760        1.60380       -0.39360
H          0.19540        1.85610        0.90120
H          1.78770       -0.82920        3.96400
H          2.39520       -3.94180        2.11030
H          0.86180       -4.14140        2.66130
