15
gdb 9794	3.00379	1.88686	1.34056	3.9645	60.88	-0.2821	0.0048	0.2869	911.4321	0.116625	-399.782761	-399.774332	-399.773388	-399.815725	30.075
C         -0.16290        1.47570       -0.27350
C          0.03140       -0.00860       -0.07140
C          0.93980       -0.78620       -0.93000
O          1.31000       -0.41720        0.40480
C         -1.15250       -0.69960        0.61970
O         -2.35830       -0.54170       -0.10590
C         -0.88130       -2.12360        0.90110
N         -0.71480       -3.25330        1.07530
H          0.69450        1.90350       -0.79700
H         -1.07160        1.67090       -0.84830
H         -0.26020        1.98040        0.69400
H          0.78100       -1.85170       -1.08410
H          1.48250       -0.27140       -1.72090
H         -1.32540       -0.19750        1.57910
H         -2.27500       -1.02780       -0.93500
