19
gdb 9522	3.04916	1.57013	1.4517	2.4268	71.79	-0.2383	-0.0208	0.2175	993.8249	0.163927	-365.065602	-365.056705	-365.055761	-365.098989	32.538
C          0.13570        1.53570        0.18740
C         -0.01950        0.02990       -0.04550
C          0.65220       -0.47070       -1.33210
C          0.02390        0.09550       -2.60910
N          2.15290       -0.37670       -1.28030
C          2.33860       -1.83280       -1.52580
C          0.81820       -2.00440       -1.39720
O          0.06600       -2.93140       -1.34930
H          1.19400        1.81480        0.17800
H         -0.38190        2.12670       -0.57470
H         -0.27890        1.81960        1.15920
H          0.42510       -0.50830        0.79910
H         -1.07890       -0.25150       -0.07620
H          0.15950        1.18060       -2.66050
H          0.47750       -0.34410       -3.50370
H         -1.04950       -0.11490       -2.63800
H          2.53870        0.20190       -2.01800
H          2.71280       -2.11170       -2.52010
H          2.94450       -2.34770       -0.77210
