14
gdb 8591	5.20145	1.83242	1.74881	4.19	62.15	-0.2687	-0.0123	0.2564	761.2922	0.107651	-382.434401	-382.428634	-382.42769	-382.464109	23.306
O         -0.21600       -0.00020       -0.40280
C         -0.02050        1.10380       -0.02760
O         -1.00840        2.04680        0.36150
C          0.07620        2.88530        0.86250
C          0.94240        4.17960        0.83580
C          1.87000        2.93040        1.24540
C          0.74450        2.48610        2.20060
C          1.13270        2.15690        0.07820
H          1.13430        4.62800       -0.13950
H          0.77800        4.92700        1.61550
H          2.93830        2.98340        1.45160
H          0.54750        3.12080        3.06590
H          0.71490        1.42360        2.45080
H          1.33230        2.54030       -0.92590
