20
gdb 16570	2.85977	2.46922	2.02287	1.4025	72.43	-0.2378	0.0766	0.3144	802.0773	0.181859	-349.036021	-349.029627	-349.028683	-349.066143	26.819
C         -0.03320        1.57770       -0.06420
C          1.46920        1.97210       -0.07680
C          2.19060        0.60550        0.01720
C          2.46800        0.16170        1.46180
C          1.16500        0.14710        2.28420
C          0.01020       -0.48360        1.48240
C          0.01130        0.03330        0.03540
O          1.26130       -0.31060       -0.57190
H         -0.58520        2.03040        0.76390
H         -0.52430        1.88210       -0.99130
H          1.73280        2.47460       -1.01040
H          1.74060        2.64110        0.74430
H          3.10440        0.56770       -0.58190
H          2.89880       -0.84560        1.42240
H          3.21400        0.81590        1.92860
H          1.31340       -0.38790        3.22800
H          0.89760        1.17470        2.55970
H          0.12920       -1.57270        1.44560
H         -0.95350       -0.27820        1.96340
H         -0.77540       -0.45090       -0.54950
