17
gdb 18379	3.40171	2.27863	1.49928	1.4799	75.73	-0.22	-0.0223	0.1978	845.0242	0.145344	-326.708675	-326.702172	-326.701228	-326.739041	26.231
C          0.02250        1.55860        0.11670
C          1.40960        2.07270       -0.17510
C          2.49310        1.74240        0.54220
C          2.52600        0.83560        1.68980
C          1.73850       -0.22670        1.91860
C          0.73620       -0.78850        0.97710
N         -0.70830       -0.58770        1.26030
C         -0.09360        0.04310        0.07580
H         -0.26470        1.86300        1.13150
H         -0.70610        2.00750       -0.56570
H          1.52240        2.78590       -0.98740
H          3.43840        2.22350        0.29870
H          3.29330        1.05700        2.43030
H          1.89490       -0.79980        2.83070
H          1.00620       -1.77850        0.60620
H         -1.22070       -1.42200        0.98590
H         -0.32680       -0.38260       -0.89800
