14
gdb 17902	3.1367	2.57647	2.33429	2.4327	66.04	-0.2472	-0.0037	0.2435	682.0412	0.109085	-345.415584	-345.409913	-345.408969	-345.445026	23.383
O          0.00040        0.09160        0.00440
C         -0.01530        1.27580        0.01080
C         -1.18520        2.34430        0.03280
C         -0.69230        3.06710        1.27640
C          0.64840        3.08500        1.25770
C          1.12560        2.37520        0.00060
C          0.61350        3.09810       -1.23520
C         -0.72730        3.08000       -1.21660
H         -2.20740        1.97310        0.04520
H         -1.34840        3.45770        2.04190
H          1.31490        3.49320        2.00480
H          2.15740        2.03160       -0.01570
H          1.25880        3.51420       -1.99640
H         -1.40450        3.47840       -1.95930
