14
gdb 9864	5.97806	0.93635	0.86012	1.7587	81.17	-0.2457	-0.0276	0.2181	1297.6829	0.103983	-345.328876	-345.320551	-345.319607	-345.361723	30.117
C         -0.02800        1.50650        0.02030
C         -0.01600       -0.00650       -0.05710
C          0.77170       -0.69920       -1.10190
O          1.25150       -0.62920        0.23530
C         -1.16780       -0.67440        0.49630
C         -2.15310       -1.19390        0.97080
C         -3.25500       -1.79060        1.49880
C         -4.23440       -2.31930        1.96730
H          0.88900        1.90840       -0.41710
H         -0.88990        1.91220       -0.51750
H         -0.09130        1.83240        1.06240
H          0.46170       -1.68570       -1.44080
H          1.31210       -0.09620       -1.83110
H         -5.09390       -2.78650        2.37990
