13
gdb 14504	3.86071	2.07036	1.58149	3.9633	58.75	-0.2684	0.0072	0.2756	777.6468	0.094629	-398.527697	-398.52094	-398.519996	-398.558397	25.617
O          0.01490        1.43640       -0.10370
C          0.01790        0.04430       -0.00830
C          0.97260       -0.57030       -0.93630
N          1.77740       -0.95160       -1.67270
C         -0.11010       -0.67410        1.38730
C         -1.52930       -0.08020        1.53520
C         -1.37320       -0.64230        0.10190
O         -0.68410       -1.82250        0.66210
H          0.92480        1.75280       -0.13360
H          0.66180       -0.87460        2.12940
H         -2.19310       -0.66270        2.17310
H         -1.62930        0.99750        1.65780
H         -2.10850       -0.80350       -0.68480
