19
gdb 13107	3.8773	1.20593	0.98637	3.402	72.63	-0.2442	0.0362	0.2803	1219.3799	0.16553	-365.094482	-365.085715	-365.084771	-365.128363	31.293
C         -0.01430        1.56190        0.08620
C          0.05950        0.03440        0.02730
C          0.60800       -0.48320       -1.30930
C          0.72500       -2.00460       -1.34620
C          1.45960       -2.65930       -2.55780
N          2.42310       -3.20180       -1.59650
C          1.86220       -2.62100       -0.48550
O          2.17790       -2.60230        0.67560
H          0.97770        2.01120       -0.03540
H         -0.65700        1.96140       -0.70680
H         -0.41720        1.90340        1.04460
H          0.68910       -0.34620        0.83870
H         -0.94050       -0.38880        0.19140
H         -0.03960       -0.14940       -2.13150
H          1.59590       -0.04010       -1.49640
H         -0.24050       -2.47470       -1.13430
H          0.89260       -3.41910       -3.10470
H          1.88990       -1.94230       -3.26550
H          3.27750       -3.72500       -1.71690
