13
gdb 20743	3.47408	1.90475	1.23971	3.3187	62.14	-0.2577	-0.0615	0.1962	903.1409	0.096613	-394.799416	-394.792255	-394.791311	-394.831327	24.779
C         -0.02810        1.50740       -0.02330
C         -0.01010        0.01370        0.02220
N         -0.02940       -0.71930       -1.09130
N         -0.00410       -1.97170       -0.63330
N          0.03070       -2.13530        0.66680
C          0.02790       -0.87340        1.12930
C          0.06030       -0.54810        2.56160
O          0.09240       -1.35180        3.46120
H          0.86410        1.93200        0.44780
H         -0.06260        1.84220       -1.06160
H         -0.89990        1.91240        0.50030
H         -0.01130       -2.75910       -1.26360
H          0.05080        0.54580        2.76510
