17
gdb 12245	3.38771	1.5602	1.21149	1.4096	65.95	-0.269	0.0138	0.2828	1024.1796	0.141154	-400.999195	-400.990618	-400.989674	-401.032637	30.503
C         -0.07800        1.43900       -0.29650
C         -0.03770       -0.07260       -0.05530
C         -1.38960       -0.63670        0.32380
O         -2.38280       -0.49150       -0.76940
C         -2.46500       -1.85030       -0.92950
N         -3.01940       -2.56450       -1.79930
C         -1.57890       -2.17690        0.25550
O         -0.43550       -2.94680       -0.00830
H          0.90810        1.81350       -0.58520
H         -0.78280        1.68440       -1.09610
H         -0.39100        1.97910        0.60380
H          0.32800       -0.59820       -0.94280
H          0.66100       -0.31630        0.75450
H         -1.79140       -0.16750        1.22680
H         -3.49420       -2.00450       -2.50930
H         -2.13730       -2.57440        1.11310
H         -0.65690       -3.54140       -0.73430
