14
gdb 21657	3.37233	2.05466	1.288	2.3132	59.79	-0.1965	0.0575	0.254	880.4234	0.109642	-412.048387	-412.040655	-412.039711	-412.079838	29.077
N         -0.00840        1.36070        0.26850
C          0.03790       -0.02200        0.07980
N         -1.06820       -0.75390        0.07750
N         -0.61470       -2.04960       -0.03610
C          0.72430       -2.10850       -0.11250
O          1.39090       -3.26870       -0.22420
C          1.21130       -0.81780       -0.04500
N          2.60340       -0.52580       -0.06700
H          0.62490        1.86300       -0.34090
H         -0.95170        1.71200        0.15620
H         -1.27050       -2.80920       -0.05290
H          2.32840       -3.02140       -0.21720
H          2.89450        0.00750        0.74660
H          2.88350        0.00110       -0.88870
