18
gdb 18381	3.32973	2.2601	1.50912	1.0668	72.67	-0.2354	0.0219	0.2573	860.2135	0.155868	-347.78663	-347.779862	-347.778918	-347.817248	27.221
C         -0.01560        1.57240        0.06660
C          1.24100        0.73550       -0.08940
C          2.26000        0.66890        1.04030
C          2.63900       -0.74920        1.41880
C          1.79200       -1.75550        1.63480
C          0.28590       -1.73820        1.58070
O         -0.31720       -0.46470        1.41660
C         -0.09010        0.07910        0.15150
H         -0.13580        2.11760        0.99670
H         -0.43980        2.05970       -0.80420
H          1.65400        0.64410       -1.09010
H          3.15860        1.22560        0.75410
H          1.85920        1.18180        1.92230
H          3.70170       -0.95080        1.53450
H          2.19810       -2.73240        1.89630
H         -0.05940       -2.42680        0.78770
H         -0.11290       -2.13400        2.52360
H         -0.56530       -0.47070       -0.66270
