18
gdb 7978	3.30224	1.8292	1.3303	1.5771	68.94	-0.2189	0.059	0.2779	963.2006	0.154768	-381.158262	-381.150079	-381.149135	-381.190627	31.002
C         -0.48370        1.51470       -0.01380
C          0.10790        0.11890       -0.08310
O          1.22310        0.11790       -1.01530
C          2.14970       -0.70350       -0.45290
N          3.25040       -0.91370       -1.24060
N          1.96010       -1.15030        0.72660
C          0.73090       -0.50140        1.21040
C          1.05560        0.48080        2.34020
H          0.24470        2.23920        0.35810
H         -0.81330        1.83680       -1.00560
H         -1.35320        1.52340        0.65070
H         -0.63860       -0.57470       -0.49180
H          3.07820       -0.89210       -2.23390
H          3.83110       -1.67650       -0.92880
H          0.04990       -1.26380        1.60640
H          1.72870        1.27290        1.99770
H          0.15110        0.94360        2.74850
H          1.56070       -0.05710        3.14660
