14
gdb 8131	4.26186	1.91049	1.55176	5.1135	57.25	-0.2798	0.0384	0.3182	814.4053	0.107011	-419.713251	-419.706602	-419.705658	-419.743968	25.213
C         -0.00830        1.50660       -0.04670
C          0.04320        0.01180        0.04690
C         -0.83910       -0.83630        0.93510
C          0.66090       -0.83380        1.11630
O          1.36860       -1.85590        0.44900
C          1.20960       -1.71000       -0.89940
O          1.66920       -2.43590       -1.71920
O          0.43030       -0.62340       -1.16520
H          0.94770        1.90570       -0.39780
H         -0.79230        1.82330       -0.74120
H         -0.22800        1.93750        0.93380
H         -1.41870       -0.31340        1.68810
H         -1.30510       -1.72210        0.51700
H          1.15850       -0.47930        2.00950
