15
gdb 17029	4.21815	1.6204	1.3619	3.3444	65.98	-0.2785	0.0236	0.3021	893.9395	0.120043	-362.620836	-362.614028	-362.613084	-362.651712	26.213
O         -0.04500        1.49260       -0.01800
C          0.02020        0.09520        0.01540
C         -0.02790       -0.64360        1.39850
C         -1.49840       -0.14550        1.52270
C         -1.35320       -0.62120        0.04430
C         -0.60560       -1.87160        0.62020
C          0.26770       -2.65260       -0.24340
N          0.95490       -3.29340       -0.91790
H          0.85190        1.83940        0.00070
H          0.74800       -0.29540       -0.70440
H          0.73890       -0.68410        2.17230
H         -2.16110       -0.73360        2.16220
H         -1.62900        0.92450        1.66620
H         -2.11100       -0.63310       -0.73840
H         -1.23120       -2.53630        1.21940
