19
gdb 13677	5.113	0.92254	0.84383	3.842	74.11	-0.245	0.0353	0.2803	1376.9535	0.165269	-365.078913	-365.069912	-365.068967	-365.113746	31.895
C          0.08930        1.49110       -0.39750
C         -0.07340        0.07760        0.12080
C          1.05370       -0.92310        0.03630
C          0.57910       -0.42700        1.38770
C          1.47020        0.43610        2.25290
N          2.40730       -0.37380        3.02150
C          2.56950       -0.25970        4.36550
O          1.99760        0.53760        5.07910
H          1.11200        1.86020       -0.28020
H         -0.15010        1.53600       -1.46560
H         -0.57770        2.18820        0.12150
H         -1.06500       -0.33180       -0.05470
H          0.83650       -1.94480       -0.25550
H          2.01070       -0.55330       -0.32270
H         -0.01260       -1.13220        1.96580
H          2.02020        1.16160        1.64150
H          0.89030        1.00220        2.98620
H          2.92270       -1.09160        2.53660
H          3.30330       -0.99610        4.75120
