22
gdb 12373	2.77643	1.92759	1.23921	0.2159	84.48	-0.2249	0.034	0.2589	1060.084	0.201738	-313.103226	-313.09488	-313.093936	-313.135478	32.787
C         -0.01400        1.57410       -0.03530
C          0.03840        0.03700        0.02680
C          0.65320       -0.52230       -1.26880
C          0.96990       -2.01480       -1.16180
C          1.98610       -2.25870       -0.03990
C          1.62820       -1.49490        1.20720
C          0.75750       -0.48200        1.26570
C          0.41270        0.16510        2.58380
H          0.99540        2.00100       -0.02690
H         -0.50550        1.89810       -0.95870
H         -0.56890        2.00490        0.80230
H         -1.00480       -0.31540        0.08900
H         -0.02600       -0.32610       -2.10680
H          1.58060        0.02650       -1.48570
H          0.04710       -2.56740       -0.94150
H          1.34900       -2.39990       -2.11470
H          2.05120       -3.32960        0.19150
H          2.99440       -1.97280       -0.37750
H          2.11250       -1.81880        2.12720
H          0.89380       -0.35570        3.41600
H          0.72110        1.21650        2.62270
H         -0.67130        0.15330        2.76040
