16
gdb 16028	4.01013	1.87952	1.50494	3.1513	60.38	-0.2534	0.078	0.3314	845.3224	0.13173	-420.846615	-420.839945	-420.839001	-420.87739	25.625
C          0.04440        1.48910        0.00960
O          1.22500        0.68390       -0.00600
C         -0.04740        0.02740        0.00260
C         -0.39050       -0.74660        1.26030
O          0.05720       -2.09160        1.15830
C         -0.42670       -2.70200       -0.00840
O          0.03490       -2.07910       -1.17750
C         -0.41460       -0.73320       -1.25640
H         -0.13970        2.03800        0.93300
H         -0.15720        2.04780       -0.90420
H          0.10570       -0.30550        2.12730
H         -1.48250       -0.72310        1.42090
H         -0.04300       -3.72340       -0.01750
H         -1.53520       -2.70700        0.00220
H         -1.50950       -0.70810       -1.39590
H          0.06500       -0.28270       -2.12810
