14
gdb 21922	3.77556	1.86484	1.29166	1.8665	59.04	-0.2131	0.0364	0.2495	881.6558	0.109654	-415.872085	-415.865092	-415.864148	-415.903301	26.262
O          0.67810       -0.05830        0.73240
C         -0.14320        0.32970       -0.38890
C         -1.50100       -0.28860       -0.29370
C         -1.74000       -1.52860        0.27700
O         -0.91000       -2.39890        0.87570
N         -3.06080       -1.77610        0.16320
N         -3.72920       -0.76420       -0.45820
C         -2.78320        0.12700       -0.72560
H          0.29320        0.34890        1.51740
H         -0.20360        1.42320       -0.46780
H          0.41570       -0.02460       -1.26290
H         -0.06350       -1.92450        0.96160
H         -3.56160       -2.58120        0.49840
H         -3.04790        1.04630       -1.22950
