18
gdb 7986	3.56737	1.58449	1.1776	2.8228	67.74	-0.25	-0.0269	0.2231	1026.7457	0.153445	-384.978438	-384.970437	-384.969493	-385.01072	30.348
C         -0.08690        1.53130       -0.01410
C          0.07730        0.01320       -0.00170
C          0.85660       -0.54930       -1.21690
C          1.23450       -1.96410       -0.76680
O          2.26060       -2.58830       -1.48440
C          1.60320       -1.75100        0.70150
O          2.43620       -2.41390        1.27040
C          0.85220       -0.53220        1.22330
H          0.88900        2.03030       -0.00520
H         -0.62270        1.86320       -0.90960
H         -0.64850        1.87920        0.85920
H         -0.92120       -0.44340       -0.00550
H          0.27410       -0.52990       -2.14090
H          1.77590        0.02620       -1.38510
H          0.31610       -2.58440       -0.77030
H          2.82110       -3.01410       -0.81790
H          1.59970        0.18790        1.58020
H          0.22440       -0.78230        2.08360
