14
gdb 9979	2.6315	1.66108	1.09696	3.7252	66.99	-0.2594	-0.0281	0.2313	1036.8775	0.105742	-378.705442	-378.697038	-378.696094	-378.739166	28.975
N          0.03520        1.21800        0.09510
C         -0.11360       -0.03070        0.26320
N         -1.32650       -0.68290        0.03440
C         -1.39130       -2.14680        0.12770
C         -0.95970       -2.66100        1.42300
C         -0.58630       -3.08800        2.48190
C         -2.48360        0.01210       -0.29210
O         -3.54300       -0.52410       -0.52200
H          0.98500        1.49650        0.32990
H          0.65940       -0.72690        0.60320
H         -2.43600       -2.40520       -0.06640
H         -0.78990       -2.59620       -0.67250
H         -0.27250       -3.47010        3.42210
H         -2.31400        1.09630       -0.31250
