11
gdb 23837	5.91664	1.57274	1.24247	3.1384	55.3	-0.2534	-0.0625	0.1909	849.5927	0.072903	-438.712026	-438.706161	-438.705217	-438.742064	22.388
O          0.08800        1.32200        0.09910
C          0.06790       -0.02250        0.06750
N          0.10200       -0.60170       -1.12220
N          0.08400       -1.93530       -1.21140
C          0.03280       -2.63750       -0.10950
F          0.01750       -3.95760       -0.25550
C         -0.00570       -2.10220        1.18520
C          0.01250       -0.73350        1.27970
H          0.12620        1.61370       -0.82410
H         -0.04740       -2.75260        2.05020
H         -0.01360       -0.20760        2.22580
