17
gdb 13844	4.4006	1.58816	1.19282	3.1524	73.74	-0.2054	0.0027	0.208	996.8173	0.142866	-363.911004	-363.903061	-363.902116	-363.943829	28.559
C         -0.02120        1.50470        0.03410
C         -0.01920       -0.01560        0.03250
O         -0.02940       -0.67480        1.05890
N         -0.00530       -0.62920       -1.19200
C         -0.00230       -2.10150       -1.30550
C          0.01510       -2.37210       -2.83610
C          0.01930       -0.98370       -3.43720
C          0.00760       -0.06330       -2.47250
H          0.86790        1.90770       -0.46180
H         -0.90090        1.90540       -0.47990
H         -0.03230        1.83600        1.07190
H          0.87170       -2.50470       -0.78800
H         -0.88670       -2.50680       -0.80770
H          0.89700       -2.95100       -3.13430
H         -0.85790       -2.95420       -3.15360
H          0.03030       -0.77570       -4.49710
H          0.00700        1.01180       -2.57390
