22
gdb 7270	3.75192	1.11137	0.917	0.7805	84.39	-0.2574	0.056	0.3134	1324.0763	0.1973	-313.049303	-313.039047	-313.038103	-313.084353	37.81
C         -0.11230        1.53370       -0.04140
C          0.02540        0.00230       -0.02610
C          0.72980       -0.45150       -1.31600
C          0.73830       -0.50360        1.25470
C          0.08860        0.02630        2.54150
C          0.79050       -2.05540        1.29430
C          1.55710       -2.58990        2.41380
C          2.20370       -3.01840        3.33280
H          0.86970        2.01640        0.03610
H         -0.56890        1.86670       -0.97910
H         -0.73390        1.90500        0.77650
H         -0.98970       -0.42400       -0.02570
H          1.77080       -0.10660       -1.33460
H          0.73540       -1.53740       -1.44040
H          0.22880       -0.03040       -2.19350
H          1.77710       -0.14560        1.22220
H          0.55400       -0.42830        3.41990
H          0.19080        1.10970        2.63460
H         -0.98160       -0.21440        2.56720
H         -0.23660       -2.44480        1.33710
H          1.22450       -2.44240        0.36700
H          2.77000       -3.40630        4.14260
