16
gdb 7332	4.34518	1.22881	1.04669	1.4705	62.58	-0.2504	-0.0687	0.1818	1148.1054	0.127314	-420.927396	-420.918176	-420.917232	-420.962493	31.038
C          0.45010        0.92580       -0.26690
C         -0.58990        0.22480        0.59310
O          0.02760       -0.46700        1.70420
C          0.47600       -1.69680        1.46350
O          0.41220       -2.28290        0.40920
C          1.11040       -2.33040        2.72720
C          1.60040       -3.74320        2.52980
O          1.19100       -1.71430        3.75790
H          1.10870        0.19810       -0.74690
H         -0.05070        1.50390       -1.04980
H          1.05390        1.61080        0.33460
H         -1.26850        0.93860        1.06420
H         -1.16600       -0.49650        0.00840
H          2.34660       -3.77240        1.72940
H          2.02550       -4.11590        3.46170
H          0.77680       -4.38450        2.20010
