17
gdb 7097	7.69879	0.89432	0.81332	1.0984	71.95	-0.2635	0.0315	0.295	1387.7217	0.139738	-363.84278	-363.833555	-363.832611	-363.877327	32.363
C          0.07960        1.54730        0.19870
C         -0.00450        0.04580       -0.00020
O          0.65970       -0.57550        1.11320
C          0.69310       -1.92080        1.11960
N          0.17300       -2.62030        0.20310
C          1.43550       -2.38150        2.37240
C          1.54000       -3.82610        2.49670
C          1.61720       -5.02200        2.58370
H          1.12110        1.87950        0.23530
H         -0.41650        2.05980       -0.63090
H         -0.40920        1.84670        1.13020
H         -1.03990       -0.30810       -0.03890
H          0.48040       -0.27560       -0.92780
H          0.30890       -3.61110        0.39810
H          2.43160       -1.92200        2.36290
H          0.92380       -1.95520        3.24410
H          1.69180       -6.07780        2.67140
