20
gdb 13868	3.99941	1.26501	1.23344	1.8727	77.57	-0.2241	0.025	0.2491	1110.5297	0.176626	-349.014872	-349.006138	-349.005194	-349.048561	31.696
C         -0.00210        1.55760        0.01610
C          0.04690        0.01750        0.00500
C          0.68350       -0.50010       -1.29940
C          0.74970       -0.52530        1.22030
C          0.25050       -1.30310        2.17810
C          1.29680       -1.61270        3.20760
O          2.46970       -0.93730        2.76010
C          2.20180       -0.24890        1.54330
H          1.00270        1.98950       -0.04620
H         -0.57450        1.92880       -0.84020
H         -0.47310        1.93200        0.92980
H         -0.98670       -0.34940        0.04030
H          1.71330       -0.14370       -1.40990
H          0.70150       -1.59370       -1.32420
H          0.11740       -0.14790       -2.16780
H         -0.76480       -1.67700        2.23520
H          1.02110       -1.25590        4.21350
H          1.49870       -2.69280        3.29590
H          2.88290       -0.60960        0.75590
H          2.40560        0.82610        1.67300
