18
gdb 7412	3.13382	1.7932	1.16654	1.3599	71.89	-0.2454	-0.0062	0.2392	1030.2585	0.152746	-381.162186	-381.152993	-381.152049	-381.197605	32.57
C         -0.32680        1.44830        0.06960
N         -0.04000        0.01190       -0.02030
C          0.04650       -0.64430        1.23320
C          0.25470       -2.13870        1.29280
N         -0.07840        0.10420        2.26170
C          0.19090       -0.61700       -1.24420
C          0.07670        0.23260       -2.50400
O          0.47450       -1.79470       -1.34090
H          0.49920        1.97400        0.55570
H         -0.49100        1.86240       -0.91970
H         -1.21440        1.60560        0.68400
H          1.21610       -2.42910        0.86730
H          0.21010       -2.44590        2.34100
H         -0.50280       -2.67780        0.72190
H         -0.01700       -0.45810        3.10790
H          0.78540        1.06590       -2.50690
H          0.29870       -0.42710       -3.34190
H         -0.92830        0.64570       -2.63260
