22
gdb 17973	2.41185	2.23299	1.37594	1.1173	77.69	-0.2373	0.0842	0.3215	991.0755	0.203465	-350.211153	-350.203384	-350.20244	-350.242751	30.96
C         -0.00930        1.51840        0.09400
C          1.43890        2.04960        0.02890
C          2.36060        1.44100       -1.03880
C          1.88820        1.58040       -2.48800
O          0.60230        1.04710       -2.74990
C          0.43590       -0.33990       -2.48980
C         -0.55690       -0.57800       -1.35080
C         -0.16860       -0.02030        0.03050
H         -0.44160        1.88360        1.03310
H         -0.60010        1.96630       -0.70950
H          1.40230        3.13890       -0.10490
H          1.91580        1.88380        1.00380
H          3.34690        1.91840       -0.97190
H          2.53660        0.38240       -0.81310
H          1.81450        2.64010       -2.75910
H          2.63610        1.12270       -3.15750
H          0.05050       -0.80670       -3.40690
H          1.40030       -0.81910       -2.27160
H         -1.51760       -0.13840       -1.64880
H         -0.72330       -1.66070       -1.27240
H          0.74490       -0.51270        0.39030
H         -0.95520       -0.32370        0.73080
