18
gdb 8597	4.39816	1.85982	1.73712	1.5184	72.71	-0.2388	0.0638	0.3026	835.3232	0.154233	-347.665927	-347.65925	-347.658306	-347.696275	27.425
C         -0.17000        1.61000       -0.16400
C          0.00550        0.12490        0.07900
O          0.91660       -0.53290       -0.91290
C          1.79800       -0.79190        0.17810
C          2.55780       -1.81080        1.07840
C          2.21590       -0.49690        1.94220
C          2.72200        0.32950        0.74980
C          0.78600       -0.57270        1.27420
H          0.77030        2.16080       -0.17360
H         -0.65830        1.76530       -1.13180
H         -0.81550        2.03300        0.61310
H         -0.97040       -0.36520        0.00880
H          2.01850       -2.72080        1.34820
H          3.62130       -1.99590        0.89740
H          2.47350       -0.36360        2.99390
H          3.78570        0.25320        0.51360
H          2.37220        1.35730        0.68710
H          0.22530       -1.45930        1.57740
