15
gdb 1165	3.06241	2.40041	1.92733	3.471	57.71	-0.2517	-0.0369	0.2149	745.2339	0.120988	-345.676743	-345.668356	-345.667412	-345.709618	28.519
C          0.12570        1.70190        0.05780
C          0.04340        0.15890       -0.01860
C          0.49700       -0.48680        1.29990
C         -1.38890       -0.23140       -0.37410
O         -2.11230       -0.87760        0.33630
C          0.97520       -0.30050       -1.13610
O          0.64440       -0.94670       -2.09540
H          1.16580        2.02400        0.17390
H         -0.27480        2.17260       -0.84590
H         -0.44040        2.06960        0.91840
H         -0.13020       -0.13480        2.12240
H          0.40780       -1.57490        1.25620
H          1.53690       -0.22680        1.52160
H         -1.73660        0.15850       -1.35440
H          2.03480        0.01650       -0.98840
