13
gdb 5719	5.11329	2.13306	1.52698	1.7279	59.79	-0.1928	0.0429	0.2357	760.2548	0.098158	-398.599994	-398.593919	-398.592975	-398.630022	23.318
C          0.03610        1.39500       -0.12080
O          1.26840        1.92870        0.38830
C          1.97710        0.80480        0.73130
C          3.21630        0.43020        1.16360
N          3.10170       -0.92600        1.45780
C          1.82650       -1.40340        1.16670
C          1.13030       -0.31250        0.73320
O         -0.14390        0.06540        0.39150
H         -0.79250        2.02370        0.21220
H          0.08890        1.35310       -1.21980
H          4.13730        0.96480        1.31590
H          3.89640       -1.52820        1.58050
H          1.56080       -2.43420        1.32170
