18
gdb 17470	4.12996	1.91123	1.63271	1.0957	69.97	-0.241	0.0786	0.3196	838.3757	0.155311	-347.779702	-347.772927	-347.771983	-347.810045	28.17
O          0.01150        1.37870       -0.03940
C          0.03140       -0.01920        0.01090
C         -0.43070       -0.78840       -1.19690
C         -1.26730       -0.78250        0.07490
C         -1.12590       -1.90180        1.08580
C         -0.15220       -3.02660        0.83050
C          0.28240       -1.84200        1.65520
C          1.01560       -0.67120        0.99700
H          0.68450        1.66340       -0.66700
H         -0.82060       -0.18790       -2.01270
H          0.08790       -1.68640       -1.51420
H         -2.20960       -0.24890        0.03810
H         -1.98180       -2.10130        1.72000
H         -0.32410       -3.95530        1.36490
H          0.25530       -3.17330       -0.16370
H          0.46240       -2.00940        2.71140
H          1.95840       -0.96970        0.52260
H          1.25630        0.08290        1.75300
