16
gdb 8859	2.99049	1.4777	1.05501	3.0636	68.88	-0.2708	-0.0724	0.1984	1102.4706	0.127106	-383.722218	-383.713143	-383.712199	-383.756222	32.175
C         -0.08550        1.53140        0.06500
C         -0.09690        0.00880       -0.08190
C          0.81880       -0.45960       -1.23100
O          2.14230       -0.04730       -1.02800
C          0.78210       -1.97900       -1.38360
O          1.79680       -2.63360       -1.23650
C         -0.48660       -2.58700       -1.71200
C         -1.54840       -3.07430       -2.00170
H          0.93320        1.89090        0.22890
H         -0.47530        2.01760       -0.83620
H         -0.70420        1.84560        0.91060
H          0.25270       -0.46140        0.84520
H         -1.11480       -0.35200       -0.26720
H          0.43270       -0.03430       -2.17420
H          2.66570       -0.86370       -0.97950
H         -2.48050       -3.51860       -2.25580
