16
gdb 10468	2.72095	1.70319	1.21772	3.415	66.2	-0.2478	-0.03	0.2178	994.4348	0.128021	-383.74923	-383.740883	-383.739939	-383.783106	29.204
O         -0.26020        1.12310        1.19550
C          0.07600        1.12950        0.03840
C          1.44350        1.58340       -0.44030
C          1.34400        2.83050       -1.30910
C          0.99220        4.17000       -0.66170
C          2.37840        3.94420       -1.15480
C          0.83480        2.62970       -2.68680
O          0.49310        1.56570       -3.14390
H         -0.61660        0.81230       -0.76900
H          2.06510        1.76980        0.43920
H          1.89040        0.77720       -1.03480
H          0.34900        4.84620       -1.21490
H          0.80340        4.14000        0.40540
H          3.16950        3.76390       -0.43630
H          2.69700        4.46000       -2.05470
H          0.79040        3.56140       -3.29760
