20
gdb 17375	3.76129	1.53572	1.26014	1.696	74.21	-0.2496	0.078	0.3276	1034.7163	0.176116	-348.972243	-348.963972	-348.963028	-349.004815	31.448
C         -0.13920        1.48910        0.00300
C          0.04560       -0.03240       -0.07020
C          0.83960       -0.43200       -1.32160
C          0.71400       -0.56770        1.19680
C         -0.06530       -0.49250        2.56710
C          0.05840       -2.01710        2.66700
O         -0.57350       -2.57060        1.50570
C          0.77450       -2.09780        1.38540
H          0.83000        1.99990        0.05960
H         -0.65940        1.86500       -0.88420
H         -0.72210        1.78470        0.88120
H         -0.94520       -0.50030       -0.12990
H          1.84960       -0.00400       -1.30130
H          0.93770       -1.51900       -1.40570
H          0.34740       -0.07210       -2.23100
H          1.71370       -0.13110        1.31110
H          0.48830        0.04500        3.34050
H         -1.09250       -0.12030        2.52810
H          0.11010       -2.64760        3.54710
H          1.51420       -2.80660        1.03020
