19
gdb 15445	4.19902	1.12257	1.02636	3.8635	69.06	-0.2316	0.0595	0.2911	1189.5668	0.164747	-402.150526	-402.141522	-402.140578	-402.184607	32.359
O          0.26750        1.30150       -0.37980
C          0.12250       -0.05100        0.00050
C         -1.34130       -0.39460        0.27390
N         -2.11020       -0.04040       -0.92200
C         -2.46840       -1.09140       -1.87420
C         -3.51350       -0.41670       -1.05430
C         -4.28990       -1.16030        0.01350
O         -3.67730       -2.40490        0.31430
H         -0.47460        1.46480       -0.97880
H          0.51410       -0.73120       -0.77600
H          0.72060       -0.20800        0.90500
H         -1.45430       -1.44580        0.56790
H         -1.70190        0.23290        1.09830
H         -2.34840       -0.84660       -2.92620
H         -2.23160       -2.11680       -1.60360
H         -4.11980        0.35770       -1.52400
H         -4.36620       -0.52920        0.91360
H         -5.31450       -1.30780       -0.36430
H         -4.10870       -2.77250        1.09110
