13
gdb 3696	7.23082	2.14807	1.6769	3.2121	55.71	-0.22	0.0354	0.2555	717.0252	0.104074	-336.853985	-336.847324	-336.846379	-336.884262	24.154
C          0.00750        1.45160       -0.00320
C         -0.01270       -0.03950        0.01510
N         -0.10610       -0.75850       -1.08760
N         -0.08470       -2.03980       -0.59550
C          0.01960       -2.01370        0.75050
N         -0.00300       -3.14240        1.54750
N          0.07340       -0.76640        1.17630
H          0.93210        1.83270        0.44210
H         -0.06940        1.81520       -1.02920
H         -0.82430        1.85610        0.58240
H         -0.20430       -2.81990       -1.21810
H          0.52510       -3.92810        1.19350
H          0.25790       -2.91960        2.49840
