12
gdb 2907	5.83573	2.23257	1.8583	1.6767	50.61	-0.2518	-0.036	0.2157	658.1344	0.090843	-360.529678	-360.523608	-360.522664	-360.560282	20.771
O         -0.53770        0.57250        0.74920
C          0.26160        0.85430       -0.10450
C          1.28520        1.98100        0.01600
C          1.45840        2.52130        1.45180
O          2.83560        2.19210        1.77420
C          3.33990        1.61680        0.66500
N          2.61440        1.46050       -0.36560
H          0.32080        0.30030       -1.06410
H          0.98230        2.75800       -0.69940
H          1.34070        3.60370        1.53270
H          0.79660        2.01980        2.16110
H          4.37940        1.31880        0.74540
