13
gdb 2659	9.5036	0.93554	0.89808	1.4386	63.88	-0.2507	0.027	0.2778	1229.4204	0.098783	-307.238509	-307.230159	-307.229215	-307.272662	27.893
O          0.06820        1.15870        0.81210
C         -0.02210        0.14620       -0.18300
C         -1.36340       -0.42330       -0.18280
C         -2.46290       -0.90910       -0.19770
C         -3.80750       -1.48730       -0.21050
C         -3.84290       -2.90700        0.14680
C         -3.88480       -4.07140        0.43540
H          0.96710        1.50260        0.78960
H          0.19680        0.55120       -1.18460
H          0.70670       -0.66020       -0.00000
H         -4.44750       -0.92300        0.48190
H         -4.25810       -1.35210       -1.20350
H         -3.91680       -5.10080        0.69360
