18
gdb 7968	3.48341	1.64664	1.19088	3.9776	76.02	-0.2298	-0.0366	0.1932	1034.7519	0.153381	-347.860285	-347.85206	-347.851115	-347.893104	30.242
C         -0.12010        1.56220        0.04820
C          0.07710        0.04690       -0.03550
C          0.92460       -0.45910       -1.22110
C          1.98150       -1.35070       -0.60190
C          2.96560       -2.08010       -1.45540
C          1.90150       -1.36400        0.73850
C          0.80240       -0.50330        1.21120
O          0.50270       -0.24960        2.35700
H          0.84260        2.08470        0.01940
H         -0.73090        1.93280       -0.78070
H         -0.61250        1.81900        0.98970
H         -0.90930       -0.43350       -0.05190
H          0.33670       -1.00770       -1.96740
H          1.40160        0.36800       -1.76470
H          3.54050       -1.37680       -2.07110
H          3.66520       -2.67220       -0.86110
H          2.44940       -2.75000       -2.15460
H          2.55040       -1.90570        1.41590
