17
gdb 17833	4.85985	1.46216	1.22092	3.3746	70.62	-0.233	0.0111	0.2441	1004.7767	0.141364	-363.846878	-363.838999	-363.838055	-363.879688	28.537
C         -0.07870        1.44900        0.03460
C         -0.02400       -0.06780       -0.00550
O          0.92760       -0.70820        0.38600
N         -1.13160       -0.66470       -0.60730
C         -2.48780       -0.62310       -0.06180
C         -3.43280       -1.11710       -1.16530
C         -2.61060       -2.45670       -1.21900
C         -1.69660       -1.90640       -0.11440
H          0.93780        1.84320        0.00240
H         -0.67210        1.85630       -0.78670
H         -0.53460        1.77310        0.97740
H         -2.71460        0.01030        0.78780
H         -4.45320       -1.27220       -0.80890
H         -3.45180       -0.50970       -2.07290
H         -3.20060       -3.31470       -0.89110
H         -2.11220       -2.69470       -2.16100
H         -1.18400       -2.43920        0.67610
