16
gdb 809	3.46941	1.97798	1.393	2.0392	59.69	-0.2503	0.0051	0.2553	881.0455	0.13466	-362.87271	-362.864226	-362.863282	-362.905493	29.764
C          0.53200        0.13720       -1.44790
C         -0.00760       -0.08210       -0.02170
C         -1.46480       -0.45750       -0.01440
C         -1.84890       -1.90640        0.17240
O         -3.22650       -2.15050        0.08700
N         -2.44260        0.34720       -0.16540
O         -2.03980        1.67880       -0.33290
H          1.59380        0.39810       -1.41750
H          0.42400       -0.76610       -2.05640
H         -0.00970        0.94850       -1.93890
H          0.56610       -0.87170        0.47620
H          0.11980        0.83640        0.55920
H         -1.31030       -2.50510       -0.58170
H         -1.45750       -2.23420        1.15160
H         -3.64260       -1.28360       -0.02150
H         -2.88080        2.14160       -0.41040
