19
gdb 2574	3.79742	2.03196	1.59359	1.6915	66.92	-0.2581	0.0903	0.3484	870.2615	0.170241	-310.909944	-310.901616	-310.900672	-310.942566	30.315
C          0.15820        1.24410        0.75750
C          0.01530       -0.09740        0.02690
C         -1.37920       -0.69930        0.12180
C         -2.48710        0.07490       -0.58070
C         -3.88880       -0.53000       -0.47170
C         -1.50030       -2.14260        0.38270
O         -1.70560       -1.19300        1.43380
H          1.19840        1.58260        0.74110
H         -0.44950        2.03040        0.29970
H         -0.14930        1.14250        1.80260
H          0.28120        0.01910       -1.03170
H          0.72630       -0.81290        0.45350
H         -2.50450        1.08790       -0.16050
H         -2.20470        0.19190       -1.63520
H         -4.63760        0.17080       -0.85130
H         -3.98210       -1.45360       -1.05140
H         -4.12710       -0.75470        0.57140
H         -2.38750       -2.69200        0.07530
H         -0.59720       -2.74640        0.46980
