16
gdb 19271	3.39472	1.89854	1.39491	3.296	66.24	-0.2369	-0.001	0.2359	903.8174	0.1303	-379.857087	-379.849482	-379.848538	-379.889421	27.586
C         -0.12900        1.34820        0.02530
O          0.29320        0.00580        0.16380
C          0.76410       -0.57280       -1.02120
C          1.29630       -1.98900       -0.87910
C          0.21290       -2.93790       -0.58550
N          0.37920       -2.50090       -2.00150
C         -0.22260       -1.18260       -2.05010
N         -1.16500       -0.83360       -2.80400
H          0.66350        1.97780       -0.40710
H         -1.02760        1.43760       -0.60090
H         -0.36610        1.71350        1.02680
H          1.48120        0.09160       -1.52920
H          2.34410       -2.26160       -0.86150
H          0.48130       -3.97920       -0.44260
H         -0.66420       -2.60680       -0.03780
H         -1.38210        0.15670       -2.68540
