16
gdb 2290	7.93749	1.44441	1.32251	2.0924	64.71	-0.247	0.0312	0.2782	944.0004	0.136715	-325.775071	-325.767648	-325.766704	-325.807533	25.875
C          1.01680        0.71130       -0.39170
C         -0.41850        0.39110        0.02760
N         -0.80680       -0.92880       -0.46440
C         -1.87010       -1.06080       -1.10540
C         -2.58700       -2.21750       -1.77080
C         -3.62430       -1.14030       -2.14720
O         -2.83620       -0.12380       -1.45980
H          1.33790        1.66860        0.03130
H          1.70020       -0.07010       -0.04720
H          1.09900        0.77440       -1.48130
H         -0.47550        0.36490        1.12350
H         -1.09930        1.18230       -0.31260
H         -2.04630       -2.67630       -2.60020
H         -2.93190       -2.99540       -1.08750
H         -3.71820       -0.90990       -3.21140
H         -4.61390       -1.24010       -1.69440
