14
gdb 8662	2.92381	1.6852	1.4313	1.4739	60.46	-0.2544	-0.0508	0.2036	905.7532	0.103856	-419.636312	-419.627824	-419.626879	-419.669088	30.718
O          0.09140        1.33460        0.26630
C          0.09880       -0.06850        0.07370
C         -1.35500       -0.58950        0.04240
O         -2.07890       -0.06860        1.15550
C         -2.10460       -0.03870       -1.19080
O         -1.65350        0.80030       -1.93090
C         -1.41020       -2.04410        0.03450
C         -1.43910       -3.24270       -0.04540
H         -0.21610        1.71350       -0.56870
H          0.62110       -0.36140       -0.84420
H          0.61270       -0.51080        0.93040
H         -1.68480        0.80750        1.30060
H         -3.13720       -0.42620       -1.29640
H         -1.46630       -4.30390       -0.09480
