15
gdb 11607	6.51752	0.95654	0.86841	1.1567	58.64	-0.2696	0.0535	0.3231	1266.1296	0.117931	-436.951821	-436.943487	-436.942543	-436.986417	28.786
N         -0.20520        1.27240        0.12590
C          0.03890       -0.05540       -0.08150
O          1.10510       -0.53490       -0.38760
O         -1.11080       -0.76220        0.07110
C         -0.98710       -2.17400       -0.14560
C         -2.37280       -2.74190       -0.23460
C         -2.64320       -4.12980        0.15750
O         -3.03020       -3.04340        0.99710
H          0.60350        1.85780        0.24390
H         -1.05500        1.54040        0.59260
H         -0.42610       -2.35310       -1.06820
H         -0.43920       -2.63130        0.68480
H         -3.01500       -2.27750       -0.98340
H         -3.45680       -4.67280       -0.32050
H         -1.83320       -4.75040        0.53910
