12
gdb 16790	3.62433	2.08119	1.492	1.2277	54.99	-0.2625	-0.0504	0.2121	783.9302	0.083104	-418.491235	-418.484925	-418.483981	-418.521952	23.449
O          0.05420       -0.01610       -0.06690
C         -0.00970        1.18310       -0.04660
C         -1.27670        2.04580       -0.08920
C         -0.81470        3.35030       -0.75010
O         -1.47770        4.10760       -1.40540
C          0.67600        3.46340       -0.51100
O          0.99360        3.19680        0.85850
C          1.17150        2.12980       -0.07810
H         -2.08770        1.56630       -0.63850
H         -1.62180        2.24880        0.93100
H          1.28640        4.19570       -1.02970
H          2.18450        1.77810       -0.24500
