17
gdb 2445	3.94208	3.31237	2.56577	1.6059	62.2	-0.2356	0.0773	0.313	620.0666	0.151884	-309.712115	-309.70644	-309.705496	-309.741317	22.916
C         -0.04330        1.56510        0.10920
C          1.48380        1.41010       -0.01950
C          2.12720        1.14360        1.34850
C          1.64870       -0.23600        1.87090
C          0.23690       -0.62240        1.35840
C          0.00710        0.03040       -0.01180
O          1.28660        0.13720       -0.70880
H         -0.44760        2.00290        1.02530
H         -0.48860        2.03680       -0.76840
H          2.03770        2.12580       -0.63270
H          3.21920        1.14510        1.26950
H          1.85910        1.95680        2.03400
H          2.34930       -0.98790        1.50060
H          1.69340       -0.27770        2.96300
H          0.16100       -1.71230        1.28550
H         -0.55230       -0.29620        2.04660
H         -0.74790       -0.47690       -0.61810
