16
gdb 12755	3.2973	1.77	1.48645	0.7787	70.44	-0.2465	0.0463	0.2927	894.9195	0.129206	-346.535625	-346.527984	-346.52704	-346.567211	29.637
O          0.00200        1.40930        0.04640
C         -0.01450        0.02970        0.03430
C         -0.35190       -0.77990       -1.18190
C         -1.22110       -0.89130        0.05510
C         -0.54050       -1.80790        1.07520
C          0.70070       -0.83170        1.10300
C          2.01880       -1.35480        0.79810
C          3.10310       -1.79320        0.51490
H          0.72530        1.70900       -0.51580
H         -0.79050       -0.19620       -1.98500
H          0.27250       -1.61030       -1.50340
H         -2.27300       -0.63720        0.03390
H         -1.04350       -1.85380        2.04260
H         -0.32440       -2.82320        0.73250
H          0.71610       -0.28410        2.04990
H          4.06320       -2.17920        0.27720
