13
gdb 21470	7.90756	1.24753	1.08295	4.5342	63.11	-0.2353	0.0038	0.2391	1015.5345	0.097488	-394.793283	-394.786392	-394.785448	-394.825177	24.512
N         -0.05270        1.25520        0.16970
C         -0.02680        0.01410       -0.04210
O         -1.15990       -0.70730        0.19470
C         -1.09790       -2.06200        0.11190
N          0.03650       -2.74370        0.18110
N         -0.36460       -4.03160        0.07120
C         -1.70530       -4.16210       -0.04740
C         -2.23200       -2.88860       -0.02780
H          0.84790        1.66220       -0.07600
H          0.80040       -0.59500       -0.41220
H          0.32950       -4.75740        0.10660
H         -2.17550       -5.12860       -0.13610
H         -3.26270       -2.58880       -0.10510
