18
gdb 14028	3.37393	1.57683	1.29677	0.4763	68.12	-0.2233	0.0665	0.2898	993.4651	0.153143	-384.895847	-384.887648	-384.886704	-384.928834	30.009
O          0.43090        0.54100        0.74110
C         -0.17040        0.20270       -0.50460
C         -1.49760       -0.50160       -0.35090
C         -1.89520       -1.62920       -1.30300
C         -1.53570       -1.92080        0.11570
C         -0.41770       -2.76500        0.71900
C         -1.50740       -3.18600        1.72900
O         -2.50390       -2.37330        1.06170
H         -0.19930        1.07520        1.23500
H         -0.28240        1.09240       -1.14430
H          0.54760       -0.45850       -1.00170
H         -2.32010        0.11990       -0.00080
H         -2.94220       -1.70660       -1.57560
H         -1.19860       -1.91220       -2.08720
H         -0.03870       -3.56770        0.08350
H          0.41220       -2.19030        1.13210
H         -1.78330       -4.24630        1.72410
H         -1.34640       -2.85920        2.76250
