16
gdb 12229	2.59139	2.07828	1.9495	2.9081	60.67	-0.2609	-0.0455	0.2154	803.8644	0.130266	-420.871488	-420.864017	-420.863073	-420.903054	28.289
O         -0.42180        1.02380        1.25630
C         -0.04630        0.08270        0.27170
C          0.46490       -1.26850        0.82590
C         -0.96040       -1.88480        0.68870
C         -1.78100       -1.83620        1.94130
O         -1.66480       -0.98730        2.80180
C         -1.29860       -0.65820       -0.28870
O         -2.50520        0.01430       -0.16440
H         -0.71910        0.52680        2.03940
H          0.58170        0.61090       -0.44910
H          1.17740       -1.75300        0.15490
H          0.88390       -1.23540        1.83390
H         -1.03740       -2.87170        0.22830
H         -2.55700       -2.62050        2.04880
H         -1.17120       -0.99440       -1.32210
H         -2.32630        0.73810        0.45820
