20
gdb 7138	6.33564	0.80143	0.72739	1.7305	73.	-0.2645	0.0214	0.286	1614.8855	0.174617	-386.192519	-386.182452	-386.181508	-386.229129	34.178
C         -0.14950        1.58100        0.01230
C         -0.01810        0.05630        0.00330
C         -1.37540       -0.64720        0.01150
C         -1.26350       -2.15850        0.00250
O         -0.23400       -2.78670       -0.01090
O         -2.48590       -2.72940        0.01100
C         -2.50640       -4.17020        0.00340
C         -3.95780       -4.60990        0.01610
H          0.83350        2.06140        0.00620
H         -0.70030        1.93960       -0.86460
H         -0.68490        1.93050        0.90240
H          0.54750       -0.26940       -0.87620
H          0.56280       -0.27850        0.86930
H         -1.96680       -0.35960        0.89020
H         -1.98210       -0.35040       -0.85350
H         -1.97710       -4.52820       -0.88560
H         -1.95870       -4.53780        0.87710
H         -4.01460       -5.70250        0.01060
H         -4.46990       -4.24270        0.91000
H         -4.48840       -4.23290       -0.86280
