14
gdb 13162	3.78058	1.5794	1.24251	2.0009	58.51	-0.2452	-0.1003	0.1449	944.4932	0.105169	-419.663122	-419.655254	-419.65431	-419.696836	26.294
O         -1.04680        1.65420       -0.06640
C          0.00020        1.14970       -0.38010
C          1.34160        1.89330       -0.32150
O          2.35190        1.30160       -0.61070
C          1.27490        3.33550        0.13740
C          1.16080        3.53120        1.67570
C          2.51990        4.24500        1.51920
O          2.53670        4.00370        0.09370
H          0.09790        0.10030       -0.73030
H          0.50000        3.85660       -0.43980
H          0.32330        4.15040        1.99450
H          1.17820        2.61420        2.26640
H          2.51990        5.31670        1.74800
H          3.36940        3.76850        2.02040
