18
gdb 14358	4.19917	2.20583	1.91859	0.3155	76.93	-0.2391	0.018	0.257	768.4299	0.156875	-310.603204	-310.597441	-310.596497	-310.632551	25.069
C         -0.05090        1.52970        0.05610
C          1.47010        1.28290        0.07400
C          1.17940        0.06800        1.03990
C          0.12290       -0.01960       -0.10320
C         -0.91600       -0.86410       -0.82070
C         -0.64640       -0.38280       -2.25560
C          0.50390        0.29540       -2.40010
C          1.27200        0.25780       -1.10170
H         -0.50120        1.86530        0.99470
H         -0.45770        2.06980       -0.79970
H          2.26320        2.02270        0.19780
H          1.93260       -0.72410        1.07580
H          0.82260        0.32900        2.04010
H         -0.74540       -1.94610       -0.73220
H         -1.94530       -0.67010       -0.49860
H         -1.33940       -0.59640       -3.06370
H          0.87190        0.68070       -3.34480
H          2.06880       -0.49780       -1.14120
