19
gdb 17139	5.39813	1.15234	1.09556	1.4664	72.91	-0.2216	0.084	0.3057	1137.3818	0.165623	-365.014178	-365.006244	-365.0053	-365.046754	30.122
O          0.03980        1.46590        0.02640
C          0.08200        0.05870        0.02460
C          0.17250       -0.60050        1.42610
N         -1.29840       -0.77010        1.39140
C         -1.29760       -0.64260       -0.08410
C         -1.88480       -1.91990        1.99440
C         -2.29220       -1.83430        3.44210
C         -3.34490       -1.86450        2.36070
H         -0.62820        1.73110        0.66920
H          0.84030       -0.22500       -0.70570
H          0.72300       -1.55510        1.40590
H          0.55630        0.01920        2.24370
H         -2.12140       -0.05760       -0.50700
H         -1.23580       -1.61120       -0.60630
H         -1.50440       -2.88940        1.65120
H         -2.16110       -2.71220        4.06450
H         -2.12000       -0.88870        3.94270
H         -3.86680       -0.93880        2.14830
H         -3.93880       -2.76320        2.23830
