13
gdb 4438	3.52234	1.93658	1.26798	4.6292	56.85	-0.2336	0.0184	0.252	895.8657	0.095263	-435.792697	-435.785333	-435.784389	-435.824246	26.628
C          0.16540        1.52350        0.04310
C         -0.02460        0.05770       -0.01190
C         -1.10140       -0.72530        0.05380
N         -2.44610       -0.42630        0.20030
O         -0.67540       -2.06470       -0.05520
C          0.67880       -2.05170       -0.18680
O          1.38620       -3.00060       -0.30380
O          1.09640       -0.74680       -0.16190
H          0.80890        1.80640        0.88330
H          0.63730        1.89460       -0.87320
H         -0.80620        2.00610        0.16230
H         -3.00280       -0.74170       -0.58830
H         -2.84290       -0.82380        1.04650
