22
gdb 10228	2.70088	1.17451	0.91679	2.117	75.17	-0.2492	0.0741	0.3233	1363.3704	0.198118	-387.334314	-387.323928	-387.322983	-387.370234	36.409
C         -0.00570        1.58440        0.05360
C          0.03420        0.05460        0.01360
C          0.64270       -0.48960       -1.28200
C          0.70870       -2.01580       -1.33990
C          1.32580       -2.52990       -2.64800
O          2.67900       -2.13470       -2.76210
O          1.52700       -2.45390       -0.24790
C          1.24250       -3.75560        0.22040
H          1.00150        2.00780       -0.02890
H         -0.60120        1.99020       -0.77220
H         -0.44350        1.94780        0.98870
H          0.61240       -0.32650        0.86160
H         -0.98390       -0.34160        0.13180
H          0.05660       -0.14460       -2.14390
H          1.65610       -0.09640       -1.42120
H         -0.30510       -2.43410       -1.22730
H          1.22690       -3.62680       -2.70020
H          0.78810       -2.11490       -3.50730
H          3.06530       -2.29590       -1.89150
H          0.20550       -3.83420        0.57870
H          1.40130       -4.52670       -0.54690
H          1.92000       -3.95210        1.05530
