15
gdb 4836	4.82729	1.40539	1.1599	0.767	63.65	-0.2159	0.0257	0.2417	1019.7811	0.119678	-399.845615	-399.838185	-399.83724	-399.877681	27.118
C          0.18770        1.57830       -0.03410
C         -0.05450        0.06370        0.08860
C          0.56950       -0.54550        1.29080
C          0.13030       -1.17640        2.40190
N          1.20980       -1.53610        3.21650
C          2.22690       -1.10100        2.55110
O          3.51940       -1.17370        2.86440
O          1.95980       -0.49340        1.38730
H          1.25790        1.79720       -0.08310
H         -0.28240        1.97130       -0.94030
H         -0.22640        2.11060        0.82730
H         -1.12860       -0.14410        0.13780
H          0.31810       -0.43720       -0.81480
H         -0.88590       -1.40460        2.68190
H          3.57030       -1.63000        3.71400
