13
gdb 21023	7.0763	1.33847	1.13364	6.2485	63.34	-0.2541	-0.0543	0.1998	985.2026	0.096669	-394.813255	-394.806138	-394.805194	-394.845186	24.289
C          0.02040        1.43960        0.06630
N         -0.01450       -0.00690       -0.02240
C         -0.18260       -0.79880       -1.11170
N         -0.15380       -2.06780       -0.77260
C          0.04010       -2.00800        0.57700
C          0.15180       -3.16760        1.48330
O          0.08430       -4.31970        1.13640
N          0.12990       -0.77220        1.07010
H          0.98170        1.76620        0.46910
H         -0.11500        1.85400       -0.93380
H         -0.78070        1.79360        0.71900
H         -0.31860       -0.39920       -2.10600
H          0.30780       -2.87060        2.54160
