16
gdb 10746	2.53458	1.93942	1.54679	1.677	65.83	-0.2602	0.029	0.2892	902.6967	0.126851	-383.675448	-383.666711	-383.665767	-383.708315	32.173
C         -0.05870        1.46640       -0.17940
C         -0.03530       -0.05520        0.00980
O          0.66990       -0.29210        1.23250
C         -1.40250       -0.58770        0.08630
C         -2.51240       -1.03780        0.18910
C          0.76360       -0.69760       -1.12910
C          0.44650       -2.00060       -1.72410
O          0.15100       -0.77670       -2.40810
H          0.96720        1.84560       -0.17680
H         -0.53410        1.71770       -1.12980
H         -0.60980        1.93620        0.63750
H          0.58000       -1.22800        1.44480
H         -3.49850       -1.42370        0.27420
H          1.80160       -0.36090       -1.13260
H          1.24650       -2.59600       -2.16140
H         -0.42360       -2.55210       -1.37580
