19
gdb 4031	2.6326	1.54182	1.1674	1.4951	70.96	-0.2421	0.01	0.2521	1101.6544	0.162644	-402.162534	-402.152667	-402.151723	-402.196966	35.506
C          0.06320        1.53220       -0.08960
C         -0.01920        0.00050        0.05460
C         -1.44350       -0.49170        0.01090
N         -2.14400       -0.63950       -1.04730
O         -1.41690       -0.33170       -2.21010
C         -2.15030       -0.85780        1.29890
C         -1.68480       -2.21720        1.83540
O         -1.87530        0.18950        2.22830
H          1.10590        1.86260       -0.05400
H         -0.36620        1.85010       -1.04250
H         -0.48260        2.02000        0.72140
H          0.54170       -0.47400       -0.75630
H          0.43300       -0.29680        1.00420
H         -2.06820       -0.49050       -2.90110
H         -3.22510       -0.91270        1.07890
H         -2.19710       -2.44940        2.77690
H         -1.91930       -3.01170        1.12130
H         -0.60720       -2.22010        2.02480
H         -2.21630       -0.08060        3.08660
