20
gdb 15941	3.45419	1.71675	1.4127	1.8797	74.02	-0.2378	0.0663	0.3041	972.5132	0.177347	-348.976453	-348.968498	-348.967553	-349.008822	30.165
C         -0.12410        1.53560        0.03170
C         -0.09170        0.00400       -0.05470
C          0.74310       -0.49950       -1.21320
C          0.19920       -0.31920       -2.66600
C          0.43450       -1.83610       -2.95060
C          1.04180       -1.99620       -1.54100
O          2.46430       -1.75890       -1.51500
C          2.27910       -0.37770       -1.13040
H          0.88210        1.94630        0.16990
H         -0.53870        1.97560       -0.88160
H         -0.73810        1.87180        0.87240
H          0.30330       -0.40930        0.88280
H         -1.11610       -0.37900       -0.15190
H         -0.85420       -0.02780       -2.69780
H          0.76360        0.37820       -3.29090
H         -0.49340       -2.39780       -3.09100
H          1.12490       -2.08420       -3.75940
H          0.75300       -2.85460       -0.92640
H          2.76210        0.31910       -1.82770
H          2.66490       -0.19180       -0.11780
