9
gdb 21789	7.57896	1.37601	1.16457	2.19	47.61	-0.311	-0.1185	0.1924	891.0125	0.047506	-470.481913	-470.475677	-470.474733	-470.51285	21.145
O         -0.13040        0.02830       -0.00100
C         -0.00320        1.22110        0.00660
C          1.32740        1.89460       -0.00230
N          2.47750        1.32220       -0.01800
O          3.39290        2.38280       -0.01980
C          2.71790        3.57370       -0.00440
O          3.18010        4.65990       -0.00140
O          1.37130        3.24860        0.00690
H         -0.85170        1.93190        0.02060
