15
gdb 9941	3.35986	1.55938	1.44078	5.1045	63.38	-0.2397	0.0176	0.2573	916.2736	0.119396	-395.957319	-395.949151	-395.948207	-395.989467	30.398
N         -0.03330        1.45780       -0.05020
C         -0.01860        0.02030       -0.01160
C         -1.33310       -0.71100       -0.02130
N         -2.51570        0.07730       -0.21560
C         -0.42600       -0.75230       -1.27620
O         -0.87630        0.02400       -2.33510
C          0.25020       -1.96830       -1.63120
N          0.81110       -2.95360       -1.86600
H          0.89730        1.81510        0.13470
H         -0.27840        1.75150       -0.99480
H          0.76300       -0.41520        0.60070
H         -1.41200       -1.62270        0.56260
H         -3.35760       -0.42630        0.02780
H         -2.46360        0.94040        0.31820
H         -1.81030        0.21420       -2.11110
