14
gdb 14809	2.5915	2.15324	1.32031	4.7308	67.75	-0.2539	0.0087	0.2626	905.2533	0.107263	-341.530963	-341.523397	-341.522453	-341.563116	27.389
C         -0.38800       -1.16390       -0.48610
C         -0.18540       -0.02580       -0.15940
C          0.05280        1.35490        0.21210
N          0.29240        1.62810        1.65000
C          1.32580        2.63360        1.33370
C          1.44910        2.02270       -0.09590
C          2.55980        1.10470       -0.27370
N          3.45980        0.39540       -0.42450
H         -0.55090       -2.17570       -0.76570
H         -0.72920        1.99130       -0.22970
H         -0.51460        1.95770        2.16790
H          0.97150        3.67220        1.28470
H          2.21490        2.58380        1.96640
H          1.43440        2.73580       -0.92100
