12
gdb 2143	3.67216	3.44031	1.88187	4.1278	51.59	-0.2281	-0.0232	0.2049	632.5293	0.090752	-360.542541	-360.536231	-360.535287	-360.572723	23.062
O          0.19860        1.39150       -0.23300
C          0.07670        0.00620        0.00170
C          0.64140       -0.52960        1.29630
C         -0.28540       -1.29300        1.88320
N         -1.47530       -1.34000        1.13590
C         -1.40190       -0.49200        0.04150
O         -2.30730       -0.19610       -0.69710
H         -0.25440        1.85490        0.48010
H          0.55690       -0.47360       -0.86170
H          1.65010       -0.36250        1.64140
H         -0.22080       -1.86370        2.79940
H         -2.35390       -1.69700        1.47550
