17
gdb 20555	4.46755	1.40386	1.3909	6.2478	68.43	-0.2457	0.023	0.2688	973.6234	0.143351	-360.065318	-360.057541	-360.056597	-360.098167	28.191
C          0.00570        1.55100       -0.01880
C         -0.00070        0.01970        0.05150
C          0.77760       -0.51550        1.25810
N         -1.37300       -0.50020        0.03940
C         -2.36430       -0.32620        0.96510
N         -3.46170       -0.94200        0.60210
N         -3.20330       -1.55220       -0.60850
C         -1.96280       -1.27520       -0.91880
H          1.03310        1.91810       -0.09790
H         -0.55680        1.90520       -0.88650
H         -0.43940        1.98930        0.88000
H          0.46010       -0.37230       -0.86120
H          0.35570       -0.14270        2.19670
H          0.75690       -1.60800        1.28360
H          1.82010       -0.18880        1.20590
H         -2.23810        0.24680        1.87010
H         -1.44320       -1.60150       -1.80690
