16
gdb 15950	3.71503	1.82274	1.49325	1.6167	60.04	-0.253	0.0448	0.2979	861.3767	0.130474	-420.820896	-420.813632	-420.812688	-420.852682	26.918
O          0.00190        1.44290       -0.06180
C          0.09200        0.03800        0.10150
C         -1.28380       -0.57310        0.04360
C         -2.27300       -0.48450        1.21830
O         -2.66810       -1.87110        1.02520
C         -1.72340       -2.05190       -0.04050
C         -2.28490       -1.67760       -1.41930
O         -1.92820       -0.28130       -1.22380
H         -0.47950        1.58680       -0.88590
H          0.73040       -0.42060       -0.66990
H          0.55630       -0.14270        1.07630
H         -1.81500       -0.33740        2.20410
H         -3.10160        0.21610        1.07810
H         -1.10450       -2.94370        0.07420
H         -1.74660       -2.10770       -2.27310
H         -3.36300       -1.82420       -1.53860
