14
gdb 12587	3.33948	2.32398	1.38222	2.6861	67.78	-0.2544	-0.0802	0.1742	838.7417	0.108736	-378.780319	-378.773158	-378.772214	-378.811822	25.925
C         -0.05410        1.44290        0.00870
N         -0.02680       -0.00470        0.00040
C         -1.15420       -0.81810        0.00310
N         -2.33970       -0.35040        0.01300
C         -0.65060       -2.21800       -0.00750
C          0.68420       -2.19600       -0.01550
C          1.13930       -0.76700       -0.01090
O          2.26980       -0.33680       -0.01530
H          0.98150        1.78550        0.00130
H         -0.57940        1.82410       -0.87130
H         -0.56330        1.81460        0.90210
H         -3.02010       -1.11000        0.01310
H         -1.31290       -3.07310       -0.00790
H          1.38390       -3.01890       -0.02410
