13
gdb 11684	5.10294	1.44839	1.31375	2.5795	64.68	-0.2684	-0.0426	0.2258	898.4037	0.095664	-361.466989	-361.460302	-361.459358	-361.497997	24.972
O          0.03500        0.04430       -0.08550
C          0.02290        1.23260        0.03390
C         -1.12520        2.27200        0.15020
C         -0.05010        3.36810       -0.00940
C          0.94930        3.25150        1.10010
C          1.08600        2.29450       -0.06820
C         -0.17980        4.52570       -0.83040
N         -0.29790        5.46460       -1.49660
H         -1.79550        2.18640       -0.70870
H         -1.71220        2.29810        1.07160
H          1.71570        4.01750        1.13640
H          0.61800        2.89310        2.07020
H          1.97860        2.27370       -0.68010
