18
gdb 588	10.46011	1.59727	1.52425	0.1174	64.07	-0.2707	0.0954	0.3661	856.0996	0.166165	-235.693825	-235.686573	-235.685628	-235.724945	26.225
C         -0.08880        1.52380       -0.00400
C         -0.09340       -0.00200       -0.12880
C          0.91550       -0.52520       -1.15980
C          0.92180       -2.03440       -1.28130
C         -0.06740       -2.73310       -2.18150
C          1.39850       -2.70440       -2.54420
H          0.89710        1.89380        0.29920
H         -0.33870        2.00010       -0.95890
H         -0.81560        1.86760        0.73870
H          0.12640       -0.45060        0.84910
H         -1.09780       -0.34940       -0.40160
H          0.69250       -0.08580       -2.14220
H          1.92200       -0.17290       -0.89280
H          1.15980       -2.55380       -0.35540
H         -0.49900       -3.67250       -1.85370
H         -0.74330       -2.11540       -2.76460
H          1.70270       -2.06870       -3.36960
H          1.96760       -3.62390       -2.46120
