18
gdb 12880	2.58764	2.37176	1.79702	1.8781	66.9	-0.2334	0.0774	0.3108	838.0361	0.154254	-384.92912	-384.921582	-384.920638	-384.960478	29.321
C         -0.05960        1.50630       -0.02970
C          0.06900        0.01320        0.07010
O         -1.08800       -0.71430       -0.31720
C         -1.48450       -1.55070        0.78340
C         -0.18750       -1.92460        1.52620
C          0.73970       -0.76190        1.18330
C          1.32230       -0.76680       -0.22960
O          1.23700       -1.90300       -1.02670
H          0.88300        1.98860        0.24620
H         -0.30870        1.80880       -1.05220
H         -0.84370        1.88050        0.63750
H         -2.16670       -0.99130        1.43960
H         -2.02560       -2.40540        0.36840
H         -0.34770       -2.01470        2.60310
H          0.22030       -2.87090        1.15750
H          1.28470       -0.25470        1.97140
H          2.24800       -0.21780       -0.38250
H          0.32460       -1.92300       -1.35080
