18
gdb 18483	3.28355	1.60228	1.39463	1.626	67.77	-0.251	0.0705	0.3215	957.4857	0.153807	-384.894331	-384.886268	-384.885324	-384.92691	30.347
O         -0.09330        1.30290       -0.52180
C          0.03750        0.02730        0.10220
C         -1.31870       -0.63270        0.06370
C         -1.92530       -1.31820       -1.12470
C         -0.87680       -2.10060       -1.92080
C         -0.59790       -2.95840       -0.63580
O          0.70760       -3.01120       -0.09290
C         -1.58710       -2.11280        0.15450
H          0.75290        1.75380       -0.44740
H          0.79280       -0.59150       -0.39340
H          0.35030        0.13130        1.15350
H         -2.06130       -0.06150        0.61830
H         -2.90470       -1.04560       -1.49690
H         -1.29610       -2.69480       -2.73590
H         -0.03380       -1.51920       -2.30560
H         -0.99600       -3.97290       -0.77160
H          1.23830       -3.59570       -0.64390
H         -2.25270       -2.51140        0.91110
