15
gdb 20222	4.43207	2.8026	2.43429	1.66	66.76	-0.2311	0.0009	0.2321	627.0168	0.122201	-325.457935	-325.453017	-325.452073	-325.486501	21.551
C         -0.03320        1.55280       -0.00820
C          1.22240        2.02300       -0.04730
C          2.15060        0.84920       -0.09050
C          1.36900       -0.31420       -0.73790
C          1.78820       -1.21220        0.46800
C          0.74830       -0.52360        1.25480
C          0.02930        0.05170       -0.01330
N          2.13910        0.01780        1.23120
H         -0.93940        2.13420        0.11280
H          1.53340        3.05670        0.03870
H          3.18570        1.01290       -0.38580
H          1.39190       -0.53140       -1.80500
H          2.30260       -2.15780        0.56830
H          0.31970       -0.74590        2.22300
H         -0.85830       -0.50800       -0.30560
