12
gdb 2870	8.10389	1.95706	1.60811	1.3752	59.6	-0.247	-0.0297	0.2173	728.8947	0.090511	-323.352987	-323.346654	-323.34571	-323.383523	22.256
C          0.07690       -1.16190       -0.06520
C         -0.00360        0.03510       -0.00870
C         -0.08660        1.45570        0.06030
N         -1.15250        2.13940       -0.07290
C         -0.75560        3.54680        0.07320
C          0.77550        3.50630        0.31930
O          1.09530        2.09680        0.28940
H          0.13850       -2.22120       -0.11670
H         -1.02330        4.10120       -0.83240
H         -1.30510        4.00030        0.90490
H          1.35810        4.00440       -0.46050
H          1.07350        3.90260        1.29380
