16
gdb 9215	7.73288	0.81439	0.7721	4.51	64.69	-0.2459	-0.0257	0.2201	1430.2377	0.128603	-417.100446	-417.090943	-417.089999	-417.136042	31.424
C         -0.05110        1.41260       -0.40250
N         -0.04330        0.04500        0.08540
C         -1.20960       -0.68160        0.13340
O         -2.31170       -0.20190       -0.06840
N         -1.02280       -2.02420        0.44020
C         -2.16700       -2.86330        0.72350
C         -2.18820       -4.10630       -0.14940
O         -2.60000       -5.17870        0.20610
H          0.70910        2.00010        0.12000
H          0.13300        1.47700       -1.48300
H         -1.03550        1.83330       -0.19800
H          0.82220       -0.46450        0.00460
H         -0.14730       -2.28960        0.86300
H         -2.23570       -3.16100        1.77610
H         -3.05320       -2.26170        0.48230
H         -1.78570       -3.93500       -1.17450
