16
gdb 19145	2.94021	1.94755	1.37162	2.1736	65.21	-0.2561	-0.036	0.2201	914.8589	0.128914	-383.711778	-383.704072	-383.703128	-383.744155	28.17
O         -1.09330        1.33950        0.08810
C          0.02780        0.96320        0.31020
C          1.26700        1.70010       -0.11000
C          2.36330        1.70960        0.88900
O          2.40960        0.83760       -0.23050
C          1.10720        2.78140       -1.12990
C          2.29940        3.30270       -1.88610
C          1.27450        2.45340       -2.59360
H          0.24490        0.02130        0.86240
H          3.05490        2.54930        0.86530
H          2.23710        1.22270        1.85530
H          0.31950        3.48350       -0.87920
H          2.33890        4.36400       -2.10330
H          3.26000        2.84200       -1.68450
H          1.56500        1.44040       -2.84880
H          0.59910        2.92350       -3.29880
