18
gdb 15778	5.67969	1.09368	1.0028	4.1589	72.68	-0.2238	0.0248	0.2486	1172.9107	0.153357	-343.959522	-343.950957	-343.950013	-343.992968	30.978
C          0.22420        1.43690       -0.44880
N          0.05750        0.02480       -0.13890
C          0.56280       -0.32790        1.18180
C          2.01440       -0.13400        1.29220
N          3.15380        0.02480        1.39600
C         -1.25520       -0.54620       -0.33860
C         -2.52730       -0.00490        0.29380
C         -2.31030        0.07300       -1.20270
H          1.26910        1.71280       -0.28470
H         -0.00260        1.61470       -1.50130
H         -0.40100        2.10850        0.16750
H          0.07960        0.23670        2.00160
H          0.35010       -1.38660        1.36710
H         -1.19820       -1.63140       -0.39090
H         -3.25070       -0.70940        0.68870
H         -2.46900        0.92930        0.84200
H         -2.14130        1.05570       -1.62530
H         -2.87580       -0.58840       -1.84950
