18
gdb 7799	3.25768	1.73563	1.20835	2.9288	68.16	-0.232	-0.0202	0.2117	1001.5945	0.154035	-384.967192	-384.959403	-384.958458	-384.999341	29.233
C         -0.00510        1.56230       -0.00220
C          0.00130        0.03240       -0.03620
C          0.75030       -0.50990       -1.25750
O          0.70250       -1.92510       -1.31000
C          1.37290       -2.54160       -0.22740
C          0.87370       -2.06490        1.13800
O          0.74330       -2.82480        2.06760
C          0.62020       -0.56850        1.24170
H          1.01560        1.96050        0.04270
H         -0.48850        1.97800       -0.89230
H         -0.54400        1.93290        0.87530
H         -1.03320       -0.32640       -0.11620
H          0.28990       -0.15780       -2.18540
H          1.79870       -0.15970       -1.24590
H          1.21620       -3.61870       -0.30930
H          2.46090       -2.34450       -0.27600
H          1.60410       -0.10140        1.40880
H          0.01810       -0.37310        2.13330
