15
gdb 14451	3.52366	2.52699	2.06621	1.7012	64.94	-0.2241	-0.0051	0.219	705.5287	0.120059	-362.579413	-362.573369	-362.572425	-362.609118	24.811
O         -0.03690        1.41410        0.06750
C          0.03730        0.03790        0.01840
C          0.71240       -0.95860        0.97120
N          0.02150       -1.88470       -0.02500
C         -1.19730       -0.90960       -0.00450
C         -1.75790       -0.95770       -1.40550
C         -0.66320       -0.96950       -2.17020
C          0.45930       -0.92400       -1.16480
H          0.84790        1.76980        0.20610
H          1.80350       -1.03780        0.95450
H          0.32380       -1.04260        1.98980
H         -1.84810       -0.99670        0.86590
H         -2.80210       -0.99450       -1.67900
H         -0.56450       -1.01140       -3.24510
H          1.50050       -1.01690       -1.47630
