16
gdb 14074	3.79391	1.64064	1.36595	1.6546	67.31	-0.2551	0.0135	0.2686	936.3117	0.130958	-379.89532	-379.887776	-379.886832	-379.927151	27.916
C         -0.07770        1.49650       -0.12050
C          0.00580       -0.00310        0.01810
N          1.34100       -0.60890       -0.11780
C          0.67280       -0.65070        1.17340
C          1.19080       -0.13900        2.51420
O          0.65890       -1.35540        3.14490
C          0.23070       -1.85890        1.93030
N         -0.30080       -2.95020        1.61680
H          0.80570        1.97470        0.31110
H         -0.13230        1.78200       -1.17600
H         -0.96950        1.88560        0.38180
H         -0.83220       -0.56430       -0.39200
H          1.28250       -1.52840       -0.55200
H          2.27740       -0.08810        2.61340
H          0.71570        0.75420        2.92650
H         -0.43600       -3.55890        2.42450
