14
gdb 8025	3.42365	2.14975	1.60115	4.4305	57.36	-0.2603	-0.0138	0.2466	800.1754	0.106631	-419.674161	-419.667347	-419.666403	-419.705106	25.321
C         -0.16120        1.59350        0.01990
C          0.05850        0.11200        0.09390
C         -1.09210       -0.90360        0.20340
O         -0.37430       -1.66270        1.21170
C          0.72240       -0.72820        1.20800
C          1.74660       -1.08270        0.11470
O          2.73840       -1.72020       -0.01280
O          1.07440       -0.36250       -0.85610
H          0.78340        2.13170        0.13640
H         -0.59030        1.86660       -0.94980
H         -0.85100        1.91880        0.80380
H         -2.02370       -0.49710        0.61290
H         -1.29420       -1.48180       -0.70320
H          1.05340       -0.41840        2.19950
