13
gdb 4369	3.7829	2.02866	1.3216	3.2469	65.22	-0.2141	-0.0285	0.1855	851.9335	0.098285	-394.846097	-394.839643	-394.838699	-394.876398	25.301
N          0.06450        1.34840        0.13670
C          0.01390       -0.02300        0.04320
C         -1.20130       -0.73070        0.08130
N         -1.23010       -2.05740        0.04030
C         -0.07260       -2.70980       -0.03530
C          1.13030       -1.99720       -0.07560
O          2.29490       -2.66890       -0.15850
N          1.18240       -0.67190       -0.04210
H          0.93450        1.76410       -0.15840
H         -0.76190        1.85880       -0.13020
H         -2.15060       -0.20580        0.14740
H         -0.08290       -3.79330       -0.06830
H          2.99460       -2.00120       -0.17040
