12
gdb 19636	6.28586	1.74107	1.67406	3.377	62.63	-0.2434	-0.0038	0.2397	748.5763	0.084676	-340.268272	-340.262644	-340.2617	-340.297968	21.776
N         -0.08740       -1.13260        0.00460
C         -0.05000        0.02560        0.00930
C          0.00840        1.43650        0.01220
C         -0.87950        2.45640        0.77540
C          0.31370        3.44220        0.77290
C          1.15980        2.47810        0.02580
N          0.33180        3.47640       -0.73420
C         -0.82340        2.48160       -0.71910
H         -1.68320        2.23680        1.46280
H          0.56330        4.30290        1.37940
H          2.23060        2.38190       -0.09860
H         -1.56890        2.36790       -1.49500
