14
gdb 14891	5.0134	1.53701	1.22608	5.8359	65.03	-0.2766	-0.0459	0.2307	936.8492	0.109276	-378.74397	-378.737127	-378.736182	-378.775207	24.931
N          0.08570       -1.12670        0.06660
C          0.00690        0.02510        0.02880
C         -0.09350        1.47080       -0.01620
N         -1.23610        2.01500        0.02620
C         -1.30420        3.47340        0.04110
C          0.01870        4.13280        0.44300
C          1.15160        3.45490       -0.31540
O          1.13570        2.03060       -0.09810
H         -1.61940        3.80570       -0.95700
H         -2.11030        3.75900        0.72440
H          0.01200        5.20500        0.22470
H          0.18380        4.01560        1.51960
H          1.06600        3.63360       -1.39450
H          2.13830        3.78500        0.01400
