17
gdb 2333	6.25042	1.2701	1.16627	0.842	61.09	-0.2601	0.0787	0.3388	1033.5414	0.146736	-346.831382	-346.823115	-346.822171	-346.864342	28.844
C          0.15230        1.53010       -0.21820
C          0.01510        0.06080        0.08760
O          1.21640       -0.71560        0.16110
C          0.41820       -0.58680        1.34800
C          1.03920        0.11600        2.52910
C          2.13340       -0.72800        3.17680
O          2.62220       -0.00960        4.29910
H          0.96040        1.99230        0.35130
H          0.36630        1.67200       -1.28280
H         -0.78200        2.05590        0.00710
H         -0.78270       -0.43530       -0.47070
H         -0.11010       -1.50850        1.60770
H          1.47050        1.07640        2.23600
H          0.26290        0.32100        3.27680
H          1.72240       -1.70640        3.47670
H          2.92700       -0.91710        2.43880
H          3.34990       -0.50870        4.68100
