13
gdb 3784	7.86683	2.00312	1.62499	4.0423	56.14	-0.2023	0.007	0.2093	729.4535	0.10403	-336.805704	-336.799304	-336.79836	-336.836067	22.928
C          0.04460        1.40260        0.12610
N         -0.02780        0.00170       -0.24090
C         -1.23660       -0.65250       -0.10990
C         -2.52600       -0.15890       -0.07740
N         -3.28590       -1.28770        0.01000
N         -2.53950       -2.39250        0.04030
N         -1.29050       -2.01460       -0.03070
H          1.07630        1.74630        0.02520
H         -0.56860        2.00070       -0.55780
H         -0.29600        1.60790        1.15390
H          0.74040       -0.56710        0.08480
H         -2.94730        0.82950       -0.11090
H         -4.28850       -1.36870        0.05770
