15
gdb 15293	3.06535	1.54087	1.23655	2.8932	68.72	-0.2428	-0.0309	0.2119	988.6963	0.116393	-362.593802	-362.585665	-362.58472	-362.626616	29.222
O         -0.93300        1.08730       -0.55300
C         -0.27750        1.81860        0.15020
C          1.21010        1.77560        0.18460
C          1.96490        3.06840        0.36620
N          1.99860        2.06100        1.39340
C          1.38340        2.28380        2.71390
C          0.50420        3.44240        2.88450
C         -0.18440        4.41720        3.03430
H         -0.75390        2.57300        0.80830
H          1.63160        0.99660       -0.44590
H          2.88490        3.21960       -0.19200
H          1.37180        3.96440        0.54210
H          0.85340        1.36610        2.99270
H          2.21670        2.38430        3.42040
H         -0.80630        5.26750        3.17240
