13
gdb 1311	3.65301	2.62796	2.2389	3.314	49.68	-0.2625	0.0008	0.2634	648.3864	0.100436	-381.612501	-381.605481	-381.604536	-381.643329	24.923
C         -0.12850        1.57980        0.06490
C         -0.03630        0.06380       -0.02320
O         -1.29470       -0.56730        0.05240
C          0.82090       -0.53470       -1.15580
O          1.78910       -1.04030       -0.17670
C          1.04550       -0.58200        0.87810
O          1.25250       -0.71500        2.04120
H          0.85280        2.04850       -0.05630
H         -0.80160        1.95710       -0.71040
H         -0.52130        1.87640        1.04310
H         -1.66980       -0.37990        0.92080
H          0.34090       -1.35530       -1.69010
H          1.29500        0.16930       -1.84160
