18
gdb 8595	4.23655	1.9621	1.78745	1.7769	72.95	-0.2264	0.0715	0.2979	818.9651	0.15357	-347.677478	-347.670724	-347.66978	-347.707829	27.699
C         -0.41630        1.55950       -0.05080
C         -0.01300        0.09260        0.00730
C          1.17510       -0.39000       -0.94720
C          2.01220       -0.50230        0.32900
C          2.91800       -1.05250        1.45980
C          1.99930        0.12720        1.99570
O          2.35370        0.88530        0.79880
C          0.78780       -0.49280        1.24620
H          0.44920        2.21100        0.07020
H         -0.89920        1.78850       -1.00800
H         -1.13510        1.78910        0.74380
H         -0.90110       -0.52800       -0.14480
H          0.95690       -1.35320       -1.41480
H          1.54700        0.31280       -1.69680
H          2.71740       -2.06940        1.80720
H          3.98200       -0.81240        1.41870
H          2.07660        0.63880        2.95950
H          0.40320       -1.44270        1.62280
