6
gdb 486	0.	1.344106	1.344106	0.	55.28	-0.3277	-0.1164	0.2113	754.2424	0.027023	-261.802956	-261.79743	-261.796485	-261.828854	17.827
C          0.60540        0.00000        0.00000
C         -0.60540        0.00000        0.00000
C         -1.96760        0.00000        0.00000
C          1.96760        0.00000        0.00000
N         -3.12950        0.00000        0.00000
N          3.12950        0.00000        0.00000
