11
gdb 209	8.97547	3.51643	2.52657	1.6811	47.51	-0.1864	0.05	0.2364	480.4033	0.086407	-285.316421	-285.311084	-285.31014	-285.344731	19.995
O          0.10820        1.38120       -0.11210
C          0.06950        0.01720       -0.03640
C         -0.00700       -0.81110       -1.13260
N         -0.02500       -2.10580       -0.65490
C          0.03840       -2.10620        0.70800
C          0.09850       -0.79530        1.13140
H          0.15990        1.73080        0.78170
H         -0.04890       -0.58680       -2.18440
H         -0.07700       -2.92580       -1.23130
H          0.03600       -3.02690        1.26860
H          0.15650       -0.45700        2.15530
