20
gdb 13712	5.80781	0.75955	0.72313	2.854	72.45	-0.2579	0.0785	0.3364	1588.7178	0.175072	-386.11956	-386.109929	-386.108985	-386.154798	33.734
C          0.17350        1.46580       -0.31070
C         -0.00460        0.02230        0.08520
O          1.17510       -0.77930        0.22140
C          0.37000       -0.55640        1.38700
C          1.00140        0.19720        2.53290
C          1.99680       -0.67650        3.30760
C          2.64480        0.05930        4.47230
O          3.52250       -0.84360        5.12670
H          0.98240        1.94610        0.24290
H          0.40870        1.53550       -1.37800
H         -0.75200        2.02570       -0.13630
H         -0.80930       -0.48630       -0.45170
H         -0.18520       -1.44510        1.70050
H          1.50990        1.09120        2.15840
H          0.20320        0.54050        3.20590
H          1.49220       -1.56880        3.69820
H          2.78070       -1.02920        2.62870
H          3.18750        0.94320        4.09780
H          1.86490        0.42680        5.16060
H          3.94900       -0.37720        5.85130
