17
gdb 17297	3.28948	2.44591	1.91755	0.6832	66.82	-0.2294	0.0573	0.2868	767.7294	0.142714	-363.785036	-363.778371	-363.777426	-363.815351	26.802
C         -0.11860        1.46520       -0.04250
C          0.03640       -0.02720        0.04800
O         -1.22660       -0.75010       -0.04360
C         -0.94910       -1.46930        1.18800
C          0.44980       -0.85040        1.27660
N          1.61140       -1.49010        0.53320
C          1.11290       -2.15590       -0.68820
C          1.20860       -0.68980       -0.70730
H          0.84190        1.96420        0.12080
H         -0.48310        1.74510       -1.03740
H         -0.83630        1.82880        0.69790
H         -1.62240       -1.15040        1.99380
H         -1.02110       -2.55660        1.07150
H          0.78740       -0.42780        2.22150
H          1.89910       -2.71300       -1.18870
H          0.13680       -2.62710       -0.71300
H          1.94680       -0.14680       -1.29100
