16
gdb 4965	3.3034	2.21905	1.34023	3.3497	74.94	-0.2099	-0.0086	0.2013	892.0186	0.133054	-342.851162	-342.843984	-342.84304	-342.882121	27.815
C         -0.00260        1.52670       -0.00250
C          0.00120        0.02230       -0.00760
C         -0.05290       -0.71510       -1.18710
C         -0.03130       -2.10540       -1.14820
N          0.03790       -2.79590       -0.00750
C          0.08410       -2.09950        1.12470
C          0.07220       -0.69990        1.19740
N          0.19250       -0.04750        2.42630
H          0.86740        1.92340        0.53440
H          0.01230        1.92480       -1.01960
H         -0.89570        1.93090        0.49410
H         -0.10860       -0.20010       -2.14150
H         -0.07130       -2.68540       -2.06630
H          0.13810       -2.67680        2.04810
H         -0.01830       -0.62930        3.22510
H         -0.28240        0.84140        2.48960
