19
gdb 10926	3.14904	1.92421	1.50761	2.0202	71.35	-0.198	0.0752	0.2732	916.946	0.16395	-365.009051	-365.000602	-364.999657	-365.041153	32.343
C         -0.69840        1.45070       -0.60160
C         -0.25150        0.01860       -0.34640
N          1.04640       -0.47130       -0.93520
C          1.86260        0.38820       -1.77170
C          1.54620       -0.83820        0.38350
C          1.57030        0.32550        1.36250
C          0.27180       -0.37510        1.04390
O         -0.48090       -1.04810        1.98850
H          0.03810        2.18620       -0.26680
H         -0.89100        1.62440       -1.66560
H         -1.63450        1.64200       -0.06550
H         -1.05190       -0.67010       -0.64550
H          2.20270        1.32350       -1.29370
H          2.75580       -0.16720       -2.07810
H          1.31220        0.65220       -2.68020
H          2.13170       -1.73860        0.53470
H          1.96910        0.07020        2.33990
H          1.77930        1.34070        1.03720
H         -0.82130       -0.40420        2.61860
