19
gdb 6954	2.58062	2.23713	1.64458	2.8676	71.79	-0.2541	0.0336	0.2877	889.931	0.166204	-365.097306	-365.089208	-365.088264	-365.129298	30.937
C          0.05870        1.50180        0.00760
C         -0.03670       -0.03860       -0.01300
C         -1.50280       -0.47900       -0.00790
C          0.78760       -0.63950       -1.17380
C          2.18520       -0.78000       -0.56350
O          1.96560       -0.99500        0.84140
C          0.71370       -0.58330        1.19920
N          0.25270       -0.63540        2.37350
H          1.09750        1.84780       -0.00810
H         -0.45160        1.92450       -0.86420
H         -0.41090        1.89610        0.91250
H         -2.02990       -0.07610       -0.87940
H         -1.58770       -1.56970       -0.02960
H         -2.00000       -0.12460        0.89820
H          0.39500       -1.62560       -1.44220
H          0.78360       -0.01750       -2.07220
H          2.75330       -1.63070       -0.94740
H          2.78890        0.12680       -0.69260
H          0.94710       -1.01360        3.01990
