14
gdb 16199	3.34881	2.44427	1.57132	2.8904	63.91	-0.2193	-0.0186	0.2007	779.9407	0.109249	-378.738752	-378.732183	-378.731239	-378.769302	25.252
O          0.10870        0.01360       -0.05160
C          0.04910        1.22390        0.01290
N         -1.08170        2.01140        0.07130
C         -0.74400        3.37820        0.02850
C          0.58370        3.55000       -0.02090
C          1.20150        2.20520        0.01210
C          2.44760        1.78470        0.73060
N          2.42470        1.82860       -0.72450
H         -2.01380        1.63690        0.01660
H         -1.53190        4.11670        0.04880
H          1.11630        4.48690       -0.04970
H          3.05180        2.55020        1.20880
H          2.41520        0.81900        1.22830
H          2.27640        0.88270       -1.07990
