18
gdb 14687	14.83109	0.52114	0.5098	0.2338	97.08	-0.2248	0.0022	0.227	2197.445	0.151412	-310.640716	-310.630604	-310.62966	-310.678672	33.8
C         -0.02350        1.57990        0.01850
C         -0.00370        0.05040        0.01160
C          0.70650       -0.51880       -1.23580
C          0.73980       -1.97280       -1.26780
C          0.75700       -3.18380       -1.27580
C          0.77710       -4.54400       -1.28610
C          0.79490       -5.75430       -1.29510
C          0.81630       -7.20600       -1.30620
H          0.99210        1.99110        0.01050
H         -0.54750        1.97500       -0.85890
H         -0.53040        1.96300        0.90910
H          0.50150       -0.32590        0.90780
H         -1.02600       -0.34180        0.04530
H          0.20630       -0.14430       -2.13990
H          1.73300       -0.12840       -1.27790
H          1.32690       -7.58880       -2.19720
H          1.33900       -7.60270       -0.42820
H         -0.19900       -7.61870       -1.30270
