15
gdb 18311	3.71978	2.18884	1.41471	3.9239	68.88	-0.2056	0.0014	0.207	843.3862	0.120277	-362.677923	-362.671186	-362.670242	-362.709873	25.008
O         -0.18100       -0.08110        0.00430
C         -0.12810        1.11970        0.12000
C         -1.26860        2.17120       -0.06910
C         -0.63680        3.52990        0.20300
C          0.63950        3.27300        0.49330
C          2.06980        3.63580        0.87570
C          2.36570        2.08830        0.81520
N          0.94820        1.91400        0.45130
H         -1.67070        2.07180       -1.08420
H         -2.08790        1.92530        0.61660
H         -1.14600        4.47960        0.16060
H          2.61090        4.23490        0.14110
H          2.18830        4.08690        1.86260
H          3.06420        1.77170        0.03650
H          2.63850        1.62280        1.76560
