12
gdb 978	3.80501	3.40231	1.80937	0.8686	52.74	-0.1809	0.0344	0.2153	645.8036	0.090579	-360.52561	-360.519011	-360.518067	-360.555895	24.081
N          0.14890        1.38350       -0.15440
C         -0.00370        0.00470       -0.05970
C         -1.10360       -0.80110       -0.02320
O         -2.39520       -0.33950        0.07670
C         -0.61930       -2.15380       -0.01670
C          0.73310       -2.06310       -0.04120
O          1.12330       -0.74880       -0.06970
H          0.78630        1.75700        0.54110
H         -0.75350        1.83470       -0.06340
H         -2.91490       -0.70770       -0.64530
H         -1.20790       -3.05740        0.01930
H          1.53260       -2.78350       -0.03600
