10
gdb 8976	4.30166	0.98016	0.82313	1.8849	61.08	-0.2807	-0.1277	0.153	1254.6998	0.056571	-417.254316	-417.246118	-417.245174	-417.288663	25.604
O         -0.26460        0.21840        0.22230
C          0.22550        1.03850       -0.51420
C          1.36690        1.85290       -0.15710
C          2.32270        2.54170        0.11820
C          3.45260        3.37000        0.46470
O          3.35890        4.44330        1.01660
C          4.83940        2.82680        0.08910
O          5.01070        1.78870       -0.48610
H         -0.16450        1.23270       -1.53240
H          5.65270        3.51020        0.40750
