20
gdb 17528	3.63644	1.77556	1.54806	0.227	79.02	-0.2383	0.0963	0.3346	928.0795	0.177577	-311.826188	-311.818615	-311.81767	-311.857563	30.315
C         -0.02490        1.55740        0.01400
C          0.09270        0.04930        0.07560
C          1.34730       -0.74200       -0.18980
C          2.60350       -0.04860        0.36490
C          1.94340       -0.05150        1.75990
C          2.63120       -0.40740        3.04250
C          2.03810        0.97290        2.85530
C          0.70590       -0.73550        1.20940
H          0.84710        2.05650        0.44210
H         -0.13250        1.89850       -1.02190
H         -0.90450        1.90130        0.56960
H         -0.78210       -0.46160       -0.32520
H          1.36640       -1.54720       -0.91460
H          3.48810       -0.69020        0.32450
H          2.85760        0.92430       -0.07020
H          2.12820       -1.09070        3.72030
H          3.71240       -0.50550        3.03520
H          2.72270        1.80460        2.72010
H          1.13770        1.22270        3.40750
H          0.16820       -1.53050        1.71490
