17
gdb 19109	4.5214	2.1844	2.12396	1.8084	69.57	-0.2199	0.078	0.2979	730.0328	0.144112	-326.636426	-326.630457	-326.629512	-326.66615	24.63
C         -0.06450        1.62800        0.01750
C          0.04020        0.11420        0.01960
C          1.09330       -0.61700       -0.83850
C          2.49770       -0.22860       -0.35050
C          2.23920       -0.24430        1.17290
C          2.60260       -1.49790        0.43790
N          1.12610       -1.77480        0.18450
C          0.75370       -0.63770        1.16230
H          0.91390        2.08920        0.18830
H         -0.44760        1.99700       -0.94010
H         -0.74330        1.97900        0.80220
H         -0.93310       -0.36060       -0.15050
H          0.93670       -0.85930       -1.89020
H          3.27000        0.37390       -0.80990
H          2.81460        0.34610        1.87340
H          3.37970       -2.24100        0.56210
H          0.25970       -0.90040        2.09830
