21
gdb 20016	4.45996	1.13963	1.01188	1.0737	80.6	-0.2311	0.0882	0.3193	1250.044	0.188306	-329.08349	-329.074779	-329.073835	-329.117124	32.429
C          0.01250        1.48550       -0.32160
C         -0.05440        0.08940        0.30760
C         -1.43170       -0.53300        0.20180
C         -1.86330       -1.23620       -1.06800
C         -1.63190       -2.02880        0.19250
N         -0.47420       -2.88000        0.23860
C         -0.29480       -3.67160        1.45170
C         -0.72120       -4.31700        0.17870
H          1.01470        1.91570       -0.22670
H         -0.23970        1.44920       -1.38670
H         -0.69160        2.17350        0.16010
H          0.67290       -0.57590       -0.16730
H          0.23490        0.15160        1.36530
H         -2.21340        0.02560        0.71300
H         -2.87820       -1.11270       -1.42960
H         -1.11400       -1.34960       -1.84460
H         -2.52000       -2.40740        0.70840
H          0.72680       -3.76970        1.80780
H         -1.04390       -3.57620        2.23620
H         -1.75510       -4.65230        0.11300
H         -0.01660       -4.89500       -0.41270
