13
gdb 20778	3.3537	2.33405	1.38794	2.1533	65.49	-0.2637	-0.076	0.1877	827.5826	0.095193	-394.717141	-394.710341	-394.709397	-394.748157	25.215
C          0.08760        1.46190        0.00550
C         -0.00940       -0.03140        0.03270
N         -0.12420       -0.63670       -1.09970
O         -0.21730       -2.02330       -1.12160
N         -0.19280       -2.78900        0.01720
C         -0.07850       -2.18660        1.14550
C          0.02790       -0.74520        1.31340
N          0.14340       -0.10030        2.41620
H          1.02060        1.78270        0.47890
H          0.04340        1.82450       -1.02180
H         -0.72480        1.89810        0.59480
H         -0.06440       -2.84190        2.01440
H          0.15330       -0.74420        3.21210
