18
gdb 13292	5.01928	0.97279	0.95234	2.3186	64.79	-0.253	0.0648	0.3178	1263.4975	0.152906	-422.033176	-422.024564	-422.02362	-422.067871	29.848
O          0.08300        1.30550       -0.38020
C         -0.06290       -0.00060        0.13870
C         -1.51940       -0.43630        0.14400
O         -1.95570       -0.41230       -1.20820
C         -3.32380       -0.66530       -1.37340
C         -4.31080        0.50660       -1.14250
O         -4.78200        0.41500       -2.50290
C         -3.78560       -0.57350       -2.83520
H         -0.38400        1.30720       -1.22390
H          0.52670       -0.73320       -0.43540
H          0.32180        0.01250        1.16360
H         -1.62880       -1.44720        0.56880
H         -2.11420        0.26220        0.75180
H         -3.60950       -1.59380       -0.86100
H         -5.11780        0.35130       -0.41770
H         -3.80860        1.46170       -0.93760
H         -3.00610       -0.17880       -3.49930
H         -4.22580       -1.47350       -3.27790
