18
gdb 16571	3.00823	2.54166	2.12906	0.7044	65.89	-0.2319	0.0826	0.3145	749.9238	0.157844	-384.952365	-384.946194	-384.94525	-384.982406	25.184
C         -0.03110        1.57440       -0.02070
C          1.47170        1.96480       -0.03370
C          2.18140        0.59220        0.01640
C          2.38420        0.10250        1.45260
O          1.15800        0.15720        2.17300
C          0.10230       -0.49040        1.47210
C          0.01800        0.03010        0.03490
O          1.25270       -0.29870       -0.61660
H         -0.56460        1.99800        0.83310
H         -0.53440        1.90380       -0.93240
H          1.73620        2.49370       -0.95200
H          1.74520        2.59830        0.81310
H          3.11930        0.55310       -0.54420
H          2.77190       -0.92810        1.42630
H          3.09280        0.73270        1.99960
H          0.26490       -1.57960        1.44780
H         -0.81460       -0.28260        2.03300
H         -0.79110       -0.46300       -0.51080
