18
gdb 7611	3.25471	1.58097	1.30315	2.0614	68.88	-0.2416	-0.0198	0.2219	1014.9449	0.149796	-384.95345	-384.943994	-384.943049	-384.987677	33.306
C          0.22100        1.22680       -0.37090
C          0.43330       -0.18470        0.11250
O          1.74430       -0.56930        0.51890
C          0.71300       -0.56290        1.52320
C          0.82840        0.44490        2.64220
C          0.24990       -1.94060        1.96530
C          0.75640       -3.13520        1.18330
O         -0.47720       -2.05300        2.92730
H          0.75880        1.95530        0.23700
H          0.57590        1.31980       -1.40270
H         -0.84560        1.47470       -0.36050
H         -0.06820       -0.93610       -0.50200
H          1.07410        1.43970        2.27060
H         -0.11110        0.48150        3.19760
H          1.61350        0.13810        3.34050
H          0.56450       -3.03460        0.11120
H          1.84370       -3.20610        1.29280
H          0.28190       -4.03900        1.56650
