12
gdb 3283	5.7673	2.65734	2.15288	4.3788	50.58	-0.2423	0.0058	0.2481	595.579	0.091443	-360.495788	-360.490293	-360.489349	-360.525069	20.411
O         -0.00810        0.02910        0.07230
C          0.00580        1.22380       -0.00880
N         -1.00380        2.17750       -0.04680
C         -0.12270        3.34120       -0.01550
C          0.41870        3.73280        1.37640
O          1.46440        2.73530        1.30000
C          1.07720        2.35500       -0.03730
H         -1.97090        2.09130        0.23650
H         -0.32720        4.11490       -0.75360
H          0.84600        4.74160        1.42080
H         -0.25690        3.57640        2.22430
H          1.90220        2.32560       -0.74900
