16
gdb 640	7.19567	2.94512	2.66214	0.1291	60.62	-0.2618	0.0944	0.3562	568.3062	0.143903	-234.472577	-234.4667	-234.465756	-234.50179	22.515
C          0.25200        1.55560        0.00800
C          1.33410        0.49700       -0.00810
C         -0.11500        0.10390        0.00370
C         -0.80470       -0.71940        1.10170
C         -1.22260       -1.74310        0.00440
C         -0.82580       -0.70750       -1.08960
H          0.10290        2.11970        0.92380
H          0.08530        2.12950       -0.89860
H          1.89690        0.35660       -0.92610
H          1.91450        0.34670        0.89720
H         -0.17350       -1.09210        1.91350
H         -1.66410       -0.20160        1.54070
H         -0.57620       -2.62410       -0.00660
H         -2.26250       -2.07650        0.01270
H         -1.69350       -0.18510       -1.50630
H         -0.21050       -1.07140       -1.91740
