15
gdb 4538	3.89498	1.69086	1.18906	2.9374	64.92	-0.1828	0.0491	0.2319	966.1198	0.118026	-399.816696	-399.808172	-399.807228	-399.849944	30.214
C         -0.09190        1.44500       -0.02150
N         -0.11310        0.00170        0.00660
C         -0.03810       -0.80870       -1.10560
C          0.12730       -2.10290       -0.66470
O          0.22270       -3.28740       -1.34950
C          0.16830       -2.07680        0.75370
O          0.29640       -3.16130        1.57140
C          0.02810       -0.76510        1.14350
H          0.92870        1.84850       -0.05270
H         -0.63380        1.80290       -0.90120
H         -0.59190        1.83570        0.86880
H         -0.10890       -0.40070       -2.10110
H          0.07310       -3.12910       -2.28550
H          0.33660       -3.93950        1.00440
H          0.01090       -0.32470        2.12620
