15
gdb 18855	3.59466	2.40919	2.03453	4.3275	63.34	-0.2382	-0.0017	0.2366	713.9946	0.121324	-362.655598	-362.649715	-362.64877	-362.685482	23.439
O         -0.00100        0.02880        0.02400
C         -0.04090        1.21940        0.05270
C         -1.14250        2.28560        0.02970
C         -1.51050        2.63770        1.48550
C         -0.14650        3.01360        2.12140
C          0.75650        3.29840        0.92450
C          0.01770        3.24210       -0.33640
N          1.06590        2.15790       -0.02790
H         -1.97700        2.13420       -0.65300
H         -2.19660        3.49060        1.49690
H         -2.00030        1.80290        1.99300
H         -0.21950        3.89970        2.75820
H          0.26150        2.20480        2.73580
H          1.62170        3.94160        1.04170
H          0.12260        3.86860       -1.21120
