18
gdb 17796	4.26087	1.58342	1.55647	1.0145	67.09	-0.2357	0.0833	0.319	909.0961	0.154826	-384.899967	-384.892505	-384.891561	-384.93244	27.012
C          0.02800        0.99340       -0.41830
C          1.46290        1.39320       -0.02570
C          1.42630        0.11230        0.84040
O          0.06080       -0.16140        0.45050
C          2.36640       -1.00020        0.42810
C          1.87320       -2.44270        0.68920
C          1.85280       -2.55790       -0.84670
O          2.35820       -1.21270       -1.00240
H         -0.76310        1.69450       -0.12720
H         -0.10850        0.70640       -1.46670
H          2.18920        1.36850       -0.83810
H          1.55450        2.32670        0.53050
H          1.50600        0.27080        1.92590
H          3.37940       -0.77190        0.79060
H          2.58610       -3.09140        1.19910
H          0.89780       -2.50620        1.17140
H          2.53470       -3.29770       -1.28240
H          0.85970       -2.67080       -1.29520
