18
gdb 9238	5.73256	0.78473	0.71255	1.3188	90.98	-0.2389	-0.0075	0.2315	1584.2353	0.150973	-310.627293	-310.61765	-310.616706	-310.661816	34.571
C         -0.10200        1.54470        0.05860
C          0.01460        0.01910        0.00420
C          0.77080       -0.50940       -1.24250
C          2.25170       -0.07470       -1.27750
C          0.66270       -1.96250       -1.32260
C          0.57440       -3.16910       -1.37630
C          0.47860       -4.52540       -1.43500
C          0.39260       -5.72890       -1.48810
H          0.87340        2.03080        0.15330
H         -0.58580        1.93780       -0.84270
H         -0.70520        1.85170        0.91830
H          0.51990       -0.35460        0.90290
H         -0.98720       -0.42330        0.00810
H          0.27520       -0.09020       -2.13120
H          2.75250       -0.47800       -2.16110
H          2.33480        1.01480       -1.30590
H          2.78030       -0.44030       -0.39170
H          0.31870       -6.78680       -1.53360
