14
gdb 4165	2.56764	1.96749	1.20955	1.199	70.37	-0.2378	-0.0393	0.1985	959.2746	0.105954	-378.611657	-378.603732	-378.602788	-378.644107	28.997
O          0.02280        1.38960        0.38790
N          0.09230        0.00710        0.24830
C         -1.04820       -0.50610       -0.06800
C         -1.06920       -1.92390       -0.24140
C         -1.15840       -3.11420       -0.40180
C         -2.32010        0.24890       -0.23860
C         -3.24350       -0.11000       -1.35660
N         -3.61260       -0.41220        0.02520
H          0.92200        1.61320        0.65140
H         -1.20760       -4.16680       -0.53750
H         -2.26920        1.27900        0.08810
H         -3.81830        0.67980       -1.83130
H         -2.94930       -0.92760       -2.00870
H         -3.45300       -1.40170        0.20870
