16
gdb 20271	4.48375	2.60546	2.37334	1.7369	65.76	-0.2371	0.079	0.3161	650.9147	0.134142	-346.542499	-346.537635	-346.53669	-346.571111	21.555
C         -0.04270        1.59260        0.04980
C          1.49690        1.40780        0.01270
C          1.85800        0.67700        1.32220
O          2.94440       -0.22480        0.98320
C          1.94560       -0.94550        0.24270
C          1.30300        0.05470       -0.78090
C         -0.07010        0.05370       -0.02420
C          0.79140       -0.47030        1.16320
H         -0.48040        2.08780        0.92400
H         -0.42870        2.05640       -0.86250
H          2.17530        2.19260       -0.31850
H          2.02740        1.24920        2.23350
H          2.21550       -1.96410       -0.03240
H          1.42810        0.02500       -1.86040
H         -0.94150       -0.52170       -0.33200
H          0.41850       -1.00250        2.03530
