17
gdb 8371	5.02634	1.29784	1.19581	3.8489	70.18	-0.2365	0.0377	0.2742	1039.0435	0.141377	-363.872183	-363.864218	-363.863274	-363.904564	29.828
C         -0.06780        1.52940       -0.04930
C          0.01310        0.02100        0.02780
C          1.33260       -0.70520       -0.22180
C          0.73000       -0.66580        1.14770
C          1.29860       -0.08880        2.45550
C          0.71720       -1.36700        3.12110
O          0.66840       -1.82410        4.23050
N          0.24910       -1.80890        1.90480
H          0.83990        1.99400        0.34980
H         -0.18330        1.86610       -1.08520
H         -0.91790        1.91400        0.52480
H         -0.86870       -0.49940       -0.34080
H          1.30580       -1.64120       -0.77070
H          2.21800       -0.10440       -0.40800
H          2.38610       -0.01290        2.50910
H          0.84170        0.83940        2.80400
H         -0.27510       -2.63080        1.64330
