20
gdb 6759	6.24414	0.64204	0.61244	1.8286	81.57	-0.2475	0.0424	0.2899	1891.6453	0.174466	-348.985492	-348.975108	-348.974164	-349.022366	35.964
C         -0.00860        1.57590        0.13240
C         -0.00620        0.04650        0.16660
C         -1.36500       -0.55120       -0.25280
C         -1.38640       -2.00960       -0.23420
C         -1.36430       -3.21460       -0.20360
C         -1.38210       -4.68090       -0.21330
C         -2.73890       -5.23340        0.24780
O         -1.01220       -5.20770       -1.48780
H          0.96270        1.97900        0.43380
H         -0.22680        1.95080       -0.87380
H         -0.76480        1.98810        0.81000
H          0.77190       -0.34580       -0.49740
H          0.24030       -0.30870        1.17340
H         -2.15200       -0.16380        0.40860
H         -1.62110       -0.19580       -1.26030
H         -0.60520       -5.05120        0.46700
H         -3.53850       -4.88090       -0.41170
H         -2.71580       -6.32610        0.22050
H         -2.96830       -4.90450        1.26560
H         -1.56000       -4.76740       -2.14690
