14
gdb 2624	19.33662	0.93285	0.89991	2.9254	62.44	-0.2664	0.0171	0.2835	1200.4852	0.11136	-324.536694	-324.528545	-324.527601	-324.570703	26.96
N         -0.10550        1.30710        0.00930
C         -0.04430        0.04700        0.00220
O         -1.17760       -0.68200        0.00900
C         -1.01610       -2.09890       -2.29670
C         -2.42070       -2.70670        0.01040
C         -2.37830       -4.16260        0.00230
C         -2.31120       -5.36210       -0.00480
H          0.83370        1.69950        0.00260
H          0.87030       -0.56250       -0.00950
H         -0.47070       -2.41890       -0.89650
H         -0.45340       -2.42820        0.88240
H         -2.95460       -2.34320        0.89610
H         -2.97160       -2.33380       -0.86080
H         -2.26980       -6.42320       -0.01090
