16
gdb 3447	4.46228	2.88654	2.11963	2.7391	60.38	-0.2378	0.0754	0.3133	660.9969	0.138442	-325.756157	-325.7499	-325.748956	-325.785997	24.081
C          0.14140        1.56000       -0.01890
C          0.05080        0.04290        0.03630
O          0.71510       -0.48920       -1.11510
C          1.29710       -1.75060       -0.81150
C          1.52620       -1.74640        0.68550
N          2.21030       -0.51820        1.14310
C          0.73740       -0.61740        1.22080
H          1.18620        1.86890        0.06100
H         -0.26550        1.92920       -0.96410
H         -0.42960        2.00950        0.80020
H         -1.00740       -0.27270        0.03980
H          0.62460       -2.58270       -1.07850
H          2.21670       -1.84120       -1.39920
H          1.66100       -2.67910        1.22260
H          2.60060       -0.68330        2.06800
H          0.24220       -0.65010        2.18550
