16
gdb 19557	4.10017	1.72051	1.58507	1.7643	63.81	-0.2334	0.073	0.3064	852.4044	0.130925	-383.660292	-383.653445	-383.652501	-383.691494	26.273
O          0.20990        1.37200       -0.15780
C          0.07540       -0.01960        0.09210
C         -1.34350       -0.47400        0.11070
C         -2.01930       -1.84500        0.02330
C         -2.84890       -1.56860        1.27780
C         -2.64030       -0.07400        0.92600
O         -3.39200        0.09620       -0.31050
C         -2.38920       -0.69930       -0.93580
H         -0.29690        1.57160       -0.95210
H          0.63190       -0.62330       -0.64490
H          0.55150       -0.18910        1.06480
H         -1.58910       -2.77670       -0.32220
H         -3.88530       -1.91710        1.32100
H         -2.30770       -1.85120        2.18420
H         -2.77630        0.74060        1.63340
H         -2.35370       -0.75740       -2.01630
