14
gdb 18003	4.26803	1.73939	1.48125	3.3381	57.32	-0.2536	-0.0391	0.2144	836.1679	0.106234	-419.627027	-419.620211	-419.619266	-419.658737	24.387
O         -0.66290        0.69970        0.29930
C          0.38670        0.69550       -0.28730
C          1.46780        1.73350       -0.05180
O          2.77970        1.32340       -0.51120
C          2.90850        2.47670       -1.36630
C          2.36200        2.24230       -2.78110
O          1.01820        2.59850       -2.34990
C          1.47660        2.93440       -1.02990
H          0.64430       -0.06460       -1.05490
H          1.47950        2.02470        1.00550
H          3.84160        3.02040       -1.21660
H          2.72780        2.94240       -3.54180
H          2.43390        1.21340       -3.14700
H          1.13160        3.90850       -0.68300
