19
gdb 13185	4.91334	1.14342	1.09518	3.8062	73.86	-0.2376	0.0322	0.2698	1146.2501	0.165855	-365.077413	-365.068929	-365.067985	-365.111268	30.453
C         -0.14850       -0.37060        1.47970
N         -0.05080        0.06900        0.09720
C          0.15170        1.39750       -0.15750
O          0.26300        2.27220        0.67520
C         -0.16700       -0.87940       -0.98540
C          0.76520       -2.12270       -1.07190
C         -0.42890       -2.89830       -1.69280
C         -1.38870       -1.83760       -1.08720
H         -1.13550       -0.79310        1.69670
H          0.61150       -1.12380        1.71210
H          0.00990        0.50490        2.10920
H          0.20610        1.59870       -1.24540
H         -0.08370       -0.30790       -1.91500
H          1.68590       -2.02320       -1.65130
H          1.01540       -2.51130       -0.08110
H         -0.41580       -2.85850       -2.78530
H         -0.56860       -3.93530       -1.38390
H         -1.74240       -2.14630       -0.09980
H         -2.24480       -1.50400       -1.67780
