12
gdb 5352	5.86576	1.60007	1.25714	5.6205	69.76	-0.2808	-0.0669	0.2139	878.977	0.087129	-340.456348	-340.450383	-340.449439	-340.486542	22.197
N          0.03590       -1.14720       -0.00400
C         -0.00900        0.00840        0.00330
C         -0.01680        1.44940        0.01070
N         -1.21690        2.04630        0.02990
C         -1.23080        3.37750        0.03700
C         -0.07880        4.16460        0.02560
C          1.15850        3.53140        0.00580
C          1.19730        2.14210       -0.00190
H         -2.21360        3.84150        0.05260
H         -0.15760        5.24570        0.03230
H          2.07840        4.10560       -0.00350
H          2.13340        1.59740       -0.01720
