15
gdb 21160	3.39698	1.87595	1.23935	4.4348	64.76	-0.1993	0.0205	0.2198	943.1439	0.120894	-392.14547	-392.137486	-392.136542	-392.178048	28.397
C          0.18130        1.45120        0.12310
N         -0.21030        0.07400       -0.13770
C          0.49140       -0.66800       -1.06150
C          0.69500       -2.03600       -1.13200
N          0.25260       -2.97080       -0.16760
N          1.41170       -2.30870       -2.25640
N          1.67880       -1.20860       -2.89090
N          1.10660       -0.19510       -2.16920
H          1.24200        1.56550        0.39430
H         -0.01810        2.07420       -0.75620
H         -0.43080        1.84260        0.93800
H         -0.37650       -0.48120        0.69230
H         -0.56870       -3.47630       -0.48910
H          0.97250       -3.66650        0.00130
H          1.19180        0.75150       -2.49860
