16
gdb 11494	3.21702	1.49117	1.15169	1.1725	65.87	-0.2476	-0.0951	0.1525	1038.8528	0.12862	-383.74386	-383.735588	-383.734643	-383.777593	28.933
O         -0.28070        2.19180       -0.91370
C          0.60790        1.40630       -0.71070
C          1.81050        1.68220        0.20700
O          2.60890        0.78680        0.36100
C          1.92340        3.05890        0.82280
C          2.71130        3.97960       -0.10180
C          2.02900        4.67880       -1.25330
C          2.48420        5.46930       -0.05310
H          0.63880        0.38890       -1.15490
H          0.92120        3.46820        0.98020
H          2.43160        2.96120        1.78680
H          3.73250        3.65110       -0.27250
H          2.57800        4.79040       -2.18170
H          0.96500        4.51260       -1.37860
H          1.72500        5.84210        0.62640
H          3.34580        6.11940       -0.15590
