22
gdb 14973	4.02631	1.33948	1.07613	0.2492	83.43	-0.2344	0.0336	0.2679	1173.0969	0.202108	-313.098611	-313.090329	-313.089385	-313.131151	32.069
C          0.09780        1.56380        0.02110
C          0.00350        0.03450       -0.01070
C         -1.42780       -0.52290        0.02530
C         -1.43960       -2.05200       -0.13100
C         -2.86790       -2.60450       -0.23590
C         -3.78360       -1.99040        0.79020
C         -3.47060       -0.89880        1.48660
C         -2.18670       -0.12940        1.30650
H          1.13740        1.89400       -0.07040
H         -0.46610        2.01180       -0.80520
H         -0.29620        1.97890        0.95400
H          0.49720       -0.33450       -0.91910
H          0.57030       -0.38490        0.83250
H         -1.97790       -0.09780       -0.82850
H         -0.85530       -2.34680       -1.01050
H         -0.94190       -2.50030        0.74000
H         -3.27110       -2.42340       -1.24400
H         -2.85940       -3.69610       -0.12060
H         -4.74060       -2.48010        0.95590
H         -4.16750       -0.51640        2.22950
H         -1.53730       -0.28590        2.18310
H         -2.40890        0.94480        1.30120
