14
gdb 21176	7.22608	1.27921	1.09778	3.0386	61.88	-0.2063	0.0284	0.2347	1026.3214	0.107696	-415.852228	-415.844682	-415.843738	-415.884153	27.404
C         -0.12830        1.46140       -0.08930
N         -0.01150        0.02350        0.10970
C         -1.11290       -0.77990        0.07840
C         -1.26700       -2.13850       -0.02280
C         -2.67060       -2.29070        0.07680
O         -3.31930       -3.46590        0.03420
N         -3.32390       -1.16080        0.21880
O         -2.30130       -0.17360        0.21470
H          0.84560        1.91730        0.09970
H         -0.45870        1.73220       -1.10140
H         -0.84570        1.87120        0.62400
H          0.82370       -0.40730       -0.25280
H         -0.51740       -2.90110       -0.13740
H         -4.26290       -3.27650        0.12460
