17
gdb 11452	3.98429	1.44235	1.13475	2.3322	65.83	-0.2457	0.018	0.2637	1050.7303	0.142787	-401.022248	-401.014173	-401.013229	-401.055229	28.928
C         -0.09820        1.41630        0.01380
C         -0.10450       -0.07240       -0.04770
N         -1.09440       -0.83720        0.18170
C         -0.62290       -2.22090       -0.01150
C         -1.50700       -2.90630       -1.05810
O         -2.86050       -2.89160       -0.66900
C          0.86020       -2.06290       -0.42710
O          1.08860       -0.63610       -0.38010
H          0.63150        1.75950        0.75380
H          0.19910        1.83370       -0.95310
H         -1.08980        1.77860        0.28210
H         -0.73020       -2.76450        0.93440
H         -1.35340       -2.40450       -2.02990
H         -1.21390       -3.95600       -1.17690
H         -3.03670       -1.98720       -0.37810
H          1.56410       -2.54670        0.25390
H          1.05870       -2.40780       -1.44820
