18
gdb 15532	2.85421	1.88149	1.27796	2.6272	74.71	-0.2313	-0.0252	0.206	983.1857	0.153257	-347.836434	-347.828181	-347.827237	-347.869772	29.676
C         -0.34870        1.49480        0.09230
C         -0.08930        0.02260        0.03610
C          0.13440       -0.73590       -1.03940
C          0.35980       -2.19000       -0.71250
C          0.00120       -2.27200        0.79680
C         -0.01240       -0.81060        1.31500
C          1.26930       -0.43290        2.03930
O          1.34020        0.33910        2.96050
H          0.36270        1.99950        0.75640
H         -0.28290        1.95170       -0.89860
H         -1.34720        1.70120        0.49850
H          0.15710       -0.35700       -2.05620
H         -0.25930       -2.85920       -1.32130
H          1.40040       -2.48390       -0.90540
H         -0.99500       -2.70330        0.92470
H          0.69550       -2.90490        1.35830
H         -0.84320       -0.59360        1.99510
H          2.18570       -0.90840        1.61460
