12
gdb 5673	5.4391	2.28341	1.60825	2.8723	60.47	-0.2047	0.0169	0.2215	715.089	0.087538	-377.548533	-377.543091	-377.542147	-377.577858	21.451
N         -0.05440        1.32460        0.01020
C          1.27070        1.75570       -0.00040
N          2.14570        0.77660       -0.01470
C          1.37110       -0.36800       -0.01290
C          0.04520       -0.03460        0.00210
O         -0.79270       -1.07860        0.00510
C          0.07330       -2.17780       -0.00930
C          1.38350       -1.80750       -0.02060
H         -0.87850        1.89990        0.02140
H          1.50400        2.80990        0.00290
H         -0.42630       -3.13120       -0.00930
H          2.22410       -2.48300       -0.03270
