14
gdb 19673	5.97282	1.65663	1.54488	3.0272	64.79	-0.2608	0.0245	0.2852	808.0802	0.109229	-341.523471	-341.517508	-341.516564	-341.553547	23.142
N         -0.11150       -1.09610       -0.14740
C         -0.03720        0.05510       -0.06860
C          0.05360        1.50380        0.02710
C         -0.04580        1.99760        1.48250
C          1.42360        1.96330        1.66110
C          1.52710        2.03140        0.08860
C          1.30040        3.53960        0.26970
N          0.72180        3.27690        1.63000
H         -0.60030        1.96480       -0.72120
H         -0.84200        1.81260        2.18950
H          2.06980        1.62340        2.45780
H          2.28550        1.60310       -0.56170
H          2.22810        4.10200        0.39560
H          0.64000        4.05930       -0.43400
