16
gdb 14475	2.97031	2.31507	1.95918	0.9698	63.91	-0.2257	0.0653	0.291	774.832	0.129504	-383.671161	-383.6641	-383.663156	-383.701916	27.881
C          0.10790        1.58170        0.05870
C         -0.06860        0.10010       -0.04480
C          0.34240       -0.74780       -1.28210
C         -0.60130       -1.81090       -0.72920
C         -0.46690       -1.66320        0.81970
O          0.50280       -0.65420        1.06890
C         -1.40300       -0.79660        0.05060
O         -2.74820       -0.54980        0.03450
H          1.17320        1.83800        0.04600
H         -0.37640        2.08460       -0.78350
H         -0.32200        1.96430        0.98920
H         -0.03830       -0.31860       -2.21260
H          1.40950       -0.97550       -1.36740
H         -0.94830       -2.73100       -1.18120
H         -0.59480       -2.47270        1.52570
H         -3.00400       -0.18910        0.89170
