15
gdb 20650	5.33793	1.29782	1.07976	2.5735	64.44	-0.2479	-0.0036	0.2444	1069.389	0.118208	-399.796887	-399.788898	-399.787953	-399.829927	27.914
C          0.07020        1.49710        0.02070
C         -0.08920        0.01810        0.02860
C         -1.16620       -0.81050        0.06870
C         -0.59410       -2.11320        0.04090
C         -1.30320       -3.43020        0.09910
O         -2.46760       -3.33720       -0.70880
N          0.71480       -2.06890       -0.01650
O          1.04130       -0.71390       -0.01670
H          0.58260        1.83110       -0.88750
H         -0.90710        1.98100        0.06620
H          0.66580        1.83210        0.87620
H         -2.20990       -0.54910        0.09710
H         -0.61680       -4.21740       -0.24130
H         -1.56730       -3.64990        1.14620
H         -2.96290       -4.15540       -0.60800
