26
gdb 6414	3.71946	0.88556	0.86583	0.0392	89.05	-0.2943	0.0792	0.3736	1551.254	0.244501	-315.492776	-315.481721	-315.480777	-315.528973	40.391
C         -0.12040        1.52980        0.19590
C          0.04740        0.01530        0.03540
C          0.76950       -0.42950       -1.25290
C          2.22500        0.05860       -1.28860
C          0.67200       -1.96190       -1.39420
C          1.22210       -2.59160       -2.68860
C          1.14490       -4.12270       -2.60180
C          0.49320       -2.08800       -3.94270
H          0.84030        2.04430        0.29400
H         -0.64220        1.96270       -0.66540
H         -0.70740        1.76450        1.08970
H          0.58620       -0.38860        0.90410
H         -0.94570       -0.45180        0.05420
H          0.23560        0.03070       -2.09660
H          2.80370       -0.38520       -0.46880
H          2.72020       -0.20930       -2.22630
H          2.28880        1.14590       -1.19010
H          1.18940       -2.41890       -0.53800
H         -0.38360       -2.25430       -1.29620
H          2.28270       -2.32290       -2.78300
H          0.10490       -4.45890       -2.50960
H          1.56640       -4.59330       -3.49640
H          1.69340       -4.50160       -1.73280
H          0.88190       -2.57550       -4.84310
H         -0.57990       -2.30850       -3.88440
H          0.60310       -1.00830       -4.08040
