18
gdb 11834	3.36944	1.79261	1.43558	0.434	68.01	-0.2314	0.0644	0.2958	932.8057	0.15231	-384.907359	-384.899143	-384.898198	-384.940096	30.956
C         -0.46160        1.38700       -0.01640
C          0.06790       -0.03220        0.00090
O          1.29130       -0.18570       -0.77430
C          2.02570       -0.57650        0.38370
C          3.16530       -1.53260        0.33150
C          3.40390       -0.06770        0.67650
C          0.79870       -0.52270        1.28910
O          0.84100        0.30820        2.41880
H          0.28920        2.10180        0.33430
H         -0.73990        1.66950       -1.03590
H         -1.34620        1.47330        0.62240
H         -0.69610       -0.73110       -0.36140
H          3.25900       -2.27440        1.11830
H          3.47940       -1.86710       -0.65150
H          3.87400        0.55280       -0.07880
H          3.65100        0.18620        1.70280
H          0.45030       -1.49490        1.64500
H          1.29350        1.12270        2.17380
