13
gdb 3780	7.61804	2.08998	1.66417	3.9931	57.3	-0.2065	0.0175	0.224	718.8532	0.102917	-340.625366	-340.61887	-340.617926	-340.655883	23.074
C         -0.08790        1.45130        0.07400
N         -0.01590        0.01330       -0.14540
C         -1.13160       -0.76640       -0.04500
C         -1.31580       -2.12340        0.05920
C         -2.72410       -2.24840        0.05160
N         -3.35350       -1.10310       -0.04130
O         -2.31390       -0.13940       -0.10000
H          0.88520        1.88670       -0.16160
H         -0.83200        1.88600       -0.59620
H         -0.35830        1.71830        1.10480
H          0.82970       -0.43770        0.16520
H         -0.56810       -2.89500        0.12150
H         -3.31280       -3.15410        0.11220
