18
gdb 1811	3.55391	2.49974	1.80576	2.6786	63.57	-0.2329	0.0638	0.2967	772.3621	0.159009	-326.954728	-326.946554	-326.94561	-326.986558	30.426
C         -0.05930        1.53070        0.37150
C         -0.08460        0.04190        0.01210
O          0.65570       -0.71400        0.96940
C         -1.49970       -0.53540       -0.02730
C         -2.44270        0.12820       -1.00960
C         -1.68060       -1.97490        0.28560
N         -2.11390       -0.93790        1.24970
H          0.97510        1.88680        0.44570
H         -0.55580        2.13670       -0.39070
H         -0.55390        1.70470        1.33200
H          0.36090       -0.08890       -0.98860
H          1.49660       -0.27120        1.11390
H         -2.03670        0.10050       -2.02770
H         -3.40390       -0.39080       -1.01000
H         -2.63380        1.17350       -0.74690
H         -2.48990       -2.52400       -0.18880
H         -0.80240       -2.56090        0.53220
H         -1.39800       -0.88040        1.97220
