19
gdb 3512	6.66636	1.60089	1.4037	0.033	71.79	-0.2635	0.0892	0.3527	916.0061	0.172983	-273.761223	-273.754193	-273.753248	-273.792406	26.878
C         -0.19440        1.38240       -0.20040
C          1.24800        1.13430        0.16470
C          0.29000       -0.02630        0.04470
C         -0.14940       -0.78850        1.26300
C         -1.41710       -1.69090        1.18340
C         -0.69020       -2.72730        2.08150
C          0.65400       -2.04730        1.70740
H         -0.83630        1.83350        0.54960
H         -0.42520        1.68130       -1.21700
H          2.00370        1.26360       -0.60230
H          1.57470        1.41890        1.15980
H          0.40850       -0.64410       -0.84340
H         -0.24470       -0.09730        2.10980
H         -2.36470       -1.27520        1.53520
H         -1.56280       -2.07180        0.16690
H         -0.93360       -2.58700        3.13890
H         -0.81070       -3.78540        1.83770
H          1.12520       -2.53450        0.84710
H          1.40740       -1.92440        2.48970
