12
gdb 16609	3.37643	2.4157	1.56564	5.2895	55.16	-0.258	-0.0837	0.1742	757.5461	0.084216	-418.505647	-418.499536	-418.498592	-418.536033	22.963
O         -0.04200        0.00680        0.12510
C         -0.01150        1.19530        0.06070
O         -1.12540        1.98400        0.04230
C         -0.77690        3.36110       -0.00380
C         -0.13770        3.89270        1.22460
C          0.72460        3.51220        0.00540
C          1.23920        2.12060       -0.02300
O          2.36040        1.71500       -0.15030
H         -1.44090        3.93750       -0.63410
H         -0.20360        4.95610        1.42320
H         -0.11360        3.25790        2.10380
H          1.25860        4.28930       -0.52400
