15
gdb 14003	4.22158	1.47796	1.27129	3.9167	66.13	-0.2611	0.018	0.2792	948.0265	0.119126	-362.635433	-362.628157	-362.627212	-362.667415	26.325
N         -0.00950       -1.14100        0.01060
C         -0.02760        0.01580        0.03460
C         -0.01680        1.45080        0.05740
C          0.54850        2.18070        1.27420
C          1.31290        2.17480        0.00030
C          2.68270        1.58400       -0.31470
O          2.97040        2.69040       -1.20010
C          1.70330        3.32210       -0.92580
H         -0.85450        1.91670       -0.45230
H          0.03610        3.08920        1.57280
H          0.91160        1.57000        2.09370
H          3.38290        1.53930        0.52870
H          2.67920        0.62030       -0.83750
H          1.09400        3.44150       -1.83060
H          1.82490        4.29880       -0.43890
