14
gdb 9871	5.32624	0.92839	0.84492	3.2806	72.74	-0.2611	-0.0609	0.2003	1303.3478	0.104629	-382.496683	-382.488366	-382.487422	-382.530175	29.089
O         -0.05020        1.38240       -0.06660
C          0.00070       -0.01630       -0.01300
C         -0.48010       -0.69480        1.26900
C         -1.35700       -0.68110        0.05160
C          1.05060       -0.64200       -0.75940
C          1.95730       -1.15840       -1.37320
C          3.03420       -1.74760       -2.11790
O          3.22490       -2.93860       -2.22790
H          0.75500        1.72550        0.33770
H         -0.00520       -1.62300        1.56290
H         -0.72790       -0.01460        2.07570
H         -2.19230        0.00910        0.03720
H         -1.49600       -1.59920       -0.50510
H          3.70270       -1.00680       -2.60290
