16
gdb 9104	5.32914	0.98785	0.84646	4.6654	69.56	-0.2663	0.013	0.2793	1310.9354	0.128007	-379.935934	-379.926495	-379.92555	-379.971699	31.127
C          0.05540        1.44160       -0.12370
N          0.01640       -0.00560       -0.10080
C         -1.07650       -0.62140        0.04660
C         -2.47860       -0.08960        0.21900
O         -1.08780       -1.98510        0.06510
C          0.18630       -2.60010       -0.08970
C         -0.00680       -4.04980       -0.04560
N         -0.11700       -5.19860       -0.01610
H          0.71730        1.79830        0.67380
H          0.49440        1.77670       -1.07040
H         -0.91760        1.93640       -0.00540
H         -2.76870        0.52020       -0.64120
H         -3.18160       -0.91610        0.31830
H         -2.54550        0.54080        1.11020
H          0.64670       -2.30730       -1.03950
H          0.87010       -2.28390        0.70550
