17
gdb 11440	4.54007	1.30005	1.1753	3.2754	64.36	-0.2367	0.0384	0.275	1030.9618	0.143682	-401.042641	-401.034738	-401.033794	-401.075228	28.969
O          0.13670        1.19750       -0.42090
C         -0.02140       -0.18960       -0.16390
C         -1.48320       -0.44000        0.20290
C         -2.42500       -0.10020       -0.98200
N         -2.58980       -1.38530       -1.63910
C         -2.29790       -2.47670       -0.86630
O         -2.45580       -3.63680       -1.17730
C         -1.74870       -1.93440        0.45960
H          1.03290        1.34810       -0.73450
H          0.24620       -0.79370       -1.04580
H          0.62050       -0.51640        0.66900
H         -1.72240        0.18280        1.06830
H         -3.38440        0.30010       -0.62590
H         -1.97340        0.64370       -1.64350
H         -3.07020       -1.50340       -2.51680
H         -0.86410       -2.50040        0.76240
H         -2.51070       -2.09130        1.23030
