14
gdb 5454	3.40851	1.98324	1.26357	1.2414	75.18	-0.2117	-0.0153	0.1963	914.724	0.106396	-345.409214	-345.401755	-345.400811	-345.440923	27.535
C         -0.00550        1.54030        0.08810
C          0.01460        0.04610        0.04820
C          0.00040       -0.74480       -1.07430
O          0.02710       -2.07210       -0.71940
C          0.05810       -2.11320        0.63130
C          0.05230       -0.85930        1.15640
C         -0.03490       -0.42660       -2.44220
C         -0.06530       -0.13070       -3.61030
H          0.88270        1.93750        0.59220
H         -0.03540        1.95470       -0.92240
H         -0.87940        1.91270        0.63430
H          0.08180       -3.09860        1.06760
H          0.07220       -0.60140        2.20410
H         -0.09200        0.12580       -4.64020
