23
gdb 9687	4.34264	1.09347	1.01271	1.0414	83.25	-0.2185	0.0834	0.3019	1307.7609	0.209836	-330.311445	-330.30141	-330.300466	-330.346143	36.815
C         -0.26280        1.58410       -0.34650
C          0.01370        0.17220        0.16730
N         -1.22390       -0.59900        0.19390
C         -1.55460       -1.40650       -0.97800
C         -1.21570       -2.06210        0.32280
C          0.09130       -2.82530        0.44450
C         -2.35180       -2.58860        1.19150
C         -2.84850       -3.98720        0.80640
H          0.65130        2.18610       -0.33840
H         -0.64110        1.55610       -1.37380
H         -1.01450        2.07840        0.27510
H          0.80000       -0.28980       -0.45280
H          0.40270        0.21920        1.19190
H         -2.58380       -1.35150       -1.32680
H         -0.81330       -1.46870       -1.77550
H          0.86920       -2.43350       -0.21360
H          0.46770       -2.79250        1.47400
H         -0.05390       -3.87820        0.18350
H         -2.02470       -2.58900        2.24040
H         -3.17520       -1.87020        1.12810
H         -3.70850       -4.27450        1.41910
H         -3.16030       -4.02010       -0.24330
H         -2.07800       -4.75170        0.94790
