17
gdb 16110	4.40216	1.62288	1.41943	2.2058	74.56	-0.2404	0.0435	0.2838	917.9339	0.143575	-326.684609	-326.677483	-326.676539	-326.715592	28.284
C         -0.01570       -1.19460        0.30240
C          0.01820       -0.00440        0.13450
C          0.03580        1.40910       -0.11860
C         -0.82850        1.95750       -1.25620
C         -0.27950        3.37670       -1.53010
C          1.20880        3.32600       -1.10810
C          1.26570        2.26560       -0.02260
N          0.26510        2.29640        1.04630
H         -0.03780       -2.24310        0.46790
H         -0.69880        1.30990       -2.13010
H         -1.89490        1.95370       -1.00830
H         -0.40510        3.67240       -2.57420
H         -0.82090        4.11940       -0.93550
H          1.84250        3.00920       -1.94490
H          1.58330        4.29900       -0.77160
H          2.22450        1.84640        0.26660
H         -0.32390        3.12440        0.98560
