13
gdb 1211	8.12805	1.33752	1.16507	1.5599	57.1	-0.2708	0.01	0.2808	962.1235	0.098562	-344.452972	-344.444932	-344.443988	-344.486557	26.681
C         -0.01620        1.45800       -0.09060
C         -0.09770       -0.04060        0.06260
O         -0.24210       -0.64120        1.09680
O          0.01470       -0.64840       -1.14080
C         -0.05190       -2.08830       -1.09510
C          0.08120       -2.60570       -2.44590
C          0.18820       -3.06690       -3.54900
H          0.93620        1.73560       -0.55080
H         -0.81190        1.81010       -0.75290
H         -0.10930        1.92710        0.88790
H          0.74360       -2.46650       -0.44400
H         -1.00310       -2.39210       -0.64470
H          0.28320       -3.47270       -4.52600
