16
gdb 15954	3.24737	1.86306	1.37041	1.1651	70.51	-0.2331	0.0365	0.2696	917.1171	0.128926	-346.530328	-346.522683	-346.521738	-346.562405	28.859
C         -0.07630       -1.13230       -0.35720
C         -0.06530        0.05140       -0.14590
C         -0.03470        1.47590        0.10540
C          0.02290        1.97280        1.57920
O          1.19680        2.76600        1.31040
C          1.31130        2.21550       -0.00030
C          2.60500        1.73100       -0.55730
C          1.91340        2.96180       -1.13780
H         -0.09210       -2.17820       -0.54010
H         -0.82150        1.98200       -0.46260
H         -0.82060        2.58590        1.91100
H          0.21920        1.17880        2.30770
H          3.49170        1.89590        0.04500
H          2.60070        0.81010       -1.13090
H          1.44690        2.88610       -2.11500
H          2.34790        3.93040       -0.91400
