16
gdb 16081	4.42546	1.7239	1.47802	0.7564	76.41	-0.23	0.0133	0.2433	875.4116	0.13083	-309.434119	-309.427207	-309.426263	-309.464802	27.735
C          0.00940       -1.17120       -0.04940
C          0.02000        0.03180       -0.01050
C          0.00800        1.46110        0.05440
C          0.39260        2.25520       -1.18200
C          1.30770        2.28790        0.01720
C          1.07530        3.41310        0.96590
C         -0.14510        3.37010        1.50450
C         -0.92470        2.15020        1.06610
H          0.00540       -2.23190       -0.08780
H          0.70560        1.67210       -2.04080
H         -0.17600        3.15120       -1.41030
H          2.27540        1.80410       -0.04850
H          1.81740        4.18210        1.14750
H         -0.56280        4.11320        2.17400
H         -1.89370        2.40690        0.62050
H         -1.13690        1.48240        1.91020
