15
gdb 19321	4.9986	1.68173	1.49127	1.2774	72.2	-0.2185	0.0275	0.246	855.2104	0.118157	-325.400184	-325.393452	-325.392508	-325.430695	27.033
C          0.01520       -1.17510       -0.02030
C         -0.00150        0.02900       -0.02690
C         -0.04470        1.44700       -0.01170
C          0.26090        2.31910       -1.21470
C          1.08640        2.48010        0.02040
N          0.49120        3.21870        1.19820
C         -0.86960        3.70280        0.87670
C         -0.66950        2.26650        1.14680
H          0.03700       -2.23640       -0.01830
H          0.77900        1.77880       -2.00030
H         -0.43850        3.05840       -1.58710
H          2.15600        2.31800        0.04080
H         -1.27950        4.29500        1.69010
H         -1.11380        4.08340       -0.10760
H         -1.01860        1.77250        2.04710
