16
gdb 4866	4.58875	1.34584	1.09653	2.0229	69.57	-0.1814	0.0395	0.2208	1060.5353	0.13213	-379.9476	-379.939492	-379.938547	-379.980431	29.788
N          0.25630        1.21620       -0.44550
C         -0.01270       -0.11310       -0.06720
C         -1.12580       -0.71900        0.47680
C         -0.78770       -2.08380        0.71160
C          0.51250       -2.27760        0.30640
C          1.38350       -3.48500        0.30350
O          1.92020       -3.78640       -0.98780
N          0.97450       -1.05840       -0.15720
H          0.37940        1.31770       -1.44910
H         -0.50360        1.82380       -0.16550
H         -2.07440       -0.23980        0.66580
H         -1.43020       -2.84470        1.12960
H          2.26810       -3.35230        0.93950
H          0.81260       -4.32870        0.71770
H          1.17210       -3.84060       -1.59270
H          1.90370       -0.88900       -0.50320
