14
gdb 5415	5.1463	1.58507	1.22104	1.8841	65.9	-0.2425	-0.0454	0.1971	927.8068	0.109097	-378.759993	-378.753047	-378.752103	-378.791808	24.897
O          0.00470        1.42780        0.00860
C         -0.00070        0.01360        0.00340
C         -1.42470       -0.48400        0.01400
N         -1.58160       -1.81110        0.01200
C         -2.83500       -2.26220        0.02110
C         -3.92930       -1.40060        0.03230
N         -3.77980       -0.07560        0.03440
C         -2.52430        0.37830        0.02520
H          0.91780        1.72650        0.00180
H          0.50190       -0.39730       -0.88620
H          0.51740       -0.40400        0.88090
H         -2.97260       -3.34070        0.01960
H         -4.94530       -1.78700        0.03960
H         -2.37780        1.45210        0.02670
