14
gdb 14080	3.98273	1.62117	1.35976	4.3344	58.54	-0.2736	-0.0154	0.2582	908.6347	0.10601	-419.677586	-419.670296	-419.669352	-419.709286	26.196
C         -0.04370        1.52560       -0.11850
C         -0.00150        0.02770        0.01760
O          1.28530       -0.60690       -0.09180
C          0.64340       -0.63850        1.15520
C          1.17810       -0.13620        2.49360
O          0.66010       -1.35270        3.12310
C          0.22780       -1.88430        1.92360
O         -0.28000       -2.93720        1.72480
H          0.78460        1.99390        0.41960
H          0.02560        1.81300       -1.17220
H         -0.98760        1.91620        0.27570
H         -0.79640       -0.52630       -0.48240
H          2.26600       -0.08470        2.57070
H          0.70900        0.75390        2.91780
