12
gdb 4736	6.68915	1.36412	1.13306	2.5517	68.8	-0.2026	-0.0185	0.1841	960.1578	0.08457	-377.529309	-377.522448	-377.521504	-377.560112	26.095
O          0.11460        1.34800       -0.07230
C          0.07030        0.00040       -0.06770
C         -0.02310       -0.82160       -1.16950
N         -0.03320       -2.09330       -0.64080
C          0.05170       -1.98890        0.71710
N          0.11620       -0.71090        1.08590
C          0.06520       -3.11880        1.56190
C          0.07460       -4.10130        2.25840
H          0.17910        1.62080        0.85120
H         -0.08000       -0.62310       -2.22470
H         -0.09260       -2.95530       -1.15640
H          0.08400       -4.95840        2.88520
