19
gdb 16420	3.43289	2.15595	1.72575	0.3174	70.46	-0.2098	0.0808	0.2905	835.0804	0.167844	-365.023072	-365.016238	-365.015294	-365.053622	27.768
C         -0.56980        1.41300        0.09580
C          0.09380        0.04430       -0.02720
C          0.90270       -0.06870       -1.35030
O          1.99460       -0.98650       -1.26890
C          2.54220       -1.08860        0.03750
C          1.47300       -1.64240        0.99880
N          0.95040       -0.23180        1.15440
C          2.35880        0.22270        0.83420
H          0.18060        2.20920        0.15730
H         -1.20590        1.61950       -0.77200
H         -1.18400        1.45690        0.99840
H         -0.68770       -0.72480       -0.01290
H          0.26770       -0.40800       -2.17420
H          1.28480        0.92560       -1.62570
H          3.52060       -1.56590       -0.06320
H          0.76150       -2.36480        0.58980
H          1.87030       -2.00100        1.95360
H          2.95380        0.24690        1.75090
H          2.45540        1.18010        0.31730
