11
gdb 23766	3.34998	2.37529	1.38983	4.7724	56.72	-0.2401	-0.0625	0.1776	781.3	0.072341	-442.55187	-442.545877	-442.544933	-442.582136	22.435
F         -0.00900        0.02400        0.00440
C         -0.06050        1.34900        0.01150
C         -1.23230        2.01900        0.03020
C         -1.21580        3.45020        0.03700
C         -0.02280        4.07390        0.02440
O          1.14940        3.41040        0.00580
C          1.23690        2.01570       -0.00220
O          2.31710        1.49790       -0.01900
H         -2.16480        1.46580        0.03970
H         -2.13180        4.02420        0.05180
H          0.12300        5.14660        0.02780
