17
gdb 14767	8.12955	0.6805	0.6519	2.5829	66.49	-0.2742	0.0272	0.3014	1639.3467	0.140966	-400.999494	-400.990275	-400.989331	-401.034744	31.123
O         -0.05380        1.44400       -0.11890
C          0.00260        0.03550       -0.02390
C         -1.38740       -0.57610        0.04360
O         -2.05310       -0.21510       -1.15830
C         -3.40490       -0.60230       -1.19720
C         -3.96440       -0.13410       -2.54650
C         -5.37010       -0.49030       -2.70890
N         -6.48270       -0.78110       -2.81960
H         -0.65090        1.63680       -0.85080
H          0.54720       -0.40710       -0.87310
H          0.55320       -0.20600        0.89090
H         -1.33090       -1.67190        0.14270
H         -1.93360       -0.17630        0.91190
H         -3.50620       -1.69450       -1.10570
H         -3.97290       -0.14640       -0.37180
H         -3.85350        0.95220       -2.62970
H         -3.37960       -0.58200       -3.35660
