20
gdb 12563	3.37028	1.75155	1.27481	2.1355	71.22	-0.2519	0.082	0.3339	1003.858	0.178388	-386.146277	-386.13829	-386.137346	-386.178555	30.329
C          0.46990        1.63190        0.06660
C         -0.01310        0.18790       -0.00030
C          0.49390       -0.54100       -1.25650
C         -0.15110       -1.91930       -1.46720
C          0.44060       -3.04230       -0.60180
O          0.85320       -2.66080        0.70550
C          0.04140       -1.75970        1.40550
O          0.40930       -0.42190        1.21660
H          1.56370        1.66860        0.06990
H          0.10460        2.20370       -0.79150
H          0.11070        2.10810        0.98250
H         -1.11820        0.17880       -0.02960
H          0.25990        0.09320       -2.11980
H          1.58590       -0.62500       -1.20520
H         -1.23050       -1.83250       -1.29090
H         -0.04660       -2.22880       -2.51370
H         -0.27650       -3.87600       -0.54230
H          1.35020       -3.43190       -1.07090
H         -1.02530       -1.91020        1.16290
H          0.20710       -1.96030        2.46740
