17
gdb 9642	4.27514	1.17827	1.09117	3.7935	70.33	-0.2773	0.0165	0.2938	1135.8668	0.140644	-363.863538	-363.85479	-363.853846	-363.896889	31.697
C          0.05670        1.45580       -0.26970
C         -0.02360        0.02370        0.27160
C         -1.42600       -0.54250        0.17960
C         -1.93540       -1.17300       -1.09170
C         -1.64420       -2.04100        0.12430
O         -0.49580       -2.83490        0.13240
C         -2.76690       -2.60090        0.84770
N         -3.66250       -3.06650        1.41310
H          1.07550        1.84610       -0.18840
H         -0.23760        1.49790       -1.32350
H         -0.60390        2.12960        0.28640
H          0.66570       -0.62750       -0.27320
H          0.30040        0.00480        1.31910
H         -2.17100       -0.00650        0.76140
H         -2.96710       -1.02500       -1.38840
H         -1.22800       -1.29080       -1.90630
H         -0.66820       -3.62280       -0.39580
