16
gdb 17028	4.20973	1.59891	1.34555	1.0803	71.45	-0.2545	0.0441	0.2986	923.6022	0.13024	-346.51255	-346.505367	-346.504423	-346.543605	28.351
O         -0.06200        1.51660        0.00610
C          0.01250        0.11500        0.02800
C         -0.03020       -0.63810        1.40070
C         -1.50410       -0.15490        1.53050
C         -1.35290       -0.61330        0.04840
C         -0.58940       -1.86770        0.60450
C          0.27890       -2.64610       -0.25650
C          0.98420       -3.32710       -0.95420
H          0.83170        1.86540        0.07440
H          0.74280       -0.26330       -0.69460
H          0.73790       -0.67230        2.17470
H         -2.16080       -0.75800        2.16280
H         -1.64690        0.91210        1.68770
H         -2.11060       -0.61650       -0.73540
H         -1.22210       -2.52320        1.20930
H          1.60750       -3.92310       -1.57360
