17
gdb 1973	5.27803	1.69725	1.54148	2.6241	60.43	-0.2462	0.0758	0.322	853.6911	0.148037	-346.839066	-346.831517	-346.830573	-346.871068	27.402
C          0.44280        1.40030        0.22010
C          0.03090       -0.03970       -0.00610
C          0.49100       -0.75010       -1.30000
C          1.17080       -1.75340       -0.34880
C          2.68240       -1.89230       -0.39550
O          3.16170       -2.48300        0.79540
O          0.78470       -0.97390        0.81420
H          1.50780        1.54010        0.01050
H         -0.13220        2.06750       -0.43160
H          0.25550        1.69310        1.25810
H         -1.04370       -0.15870        0.18920
H         -0.29800       -1.14740       -1.93900
H          1.18810       -0.16570       -1.90670
H          0.70570       -2.74720       -0.31360
H          2.98190       -2.54220       -1.22600
H          3.13240       -0.89940       -0.56380
H          2.77330       -1.97020        1.51530
