16
gdb 18078	4.83398	1.21834	1.13454	1.4475	73.84	-0.2224	0.0542	0.2766	1102.0694	0.129543	-346.530283	-346.522349	-346.521405	-346.563995	28.095
C         -0.02860        1.48600       -0.01200
C         -0.05610        0.03070       -0.01600
C         -0.08520       -1.17390       -0.02890
C         -0.11850       -2.60760       -0.04080
C         -0.36240       -3.46020        1.20770
C         -1.44800       -2.80420        2.05400
O         -2.35210       -2.74790        0.91330
C         -1.39060       -3.41710        0.10950
H          0.62070        1.87550        0.78030
H          0.34270        1.87750       -0.96570
H         -1.03060        1.90020        0.14640
H          0.59100       -3.08690       -0.71330
H          0.32300       -4.23460        1.52390
H         -1.85580       -3.46230        2.82820
H         -1.23660       -1.81180        2.46510
H         -1.74320       -4.14060       -0.61710
