15
gdb 4465	3.57062	1.80118	1.20914	1.6956	64.48	-0.1698	0.0576	0.2275	953.6595	0.119841	-396.027821	-396.019584	-396.01864	-396.060207	29.908
C         -0.02220        1.54650        0.11350
C          0.01470        0.06430       -0.00770
C          0.04870       -0.77900       -1.08570
N          0.08290       -0.44910       -2.45110
N          0.11140       -2.10700       -0.69010
C          0.11110       -2.05800        0.61630
O          0.16610       -3.10610        1.45830
N          0.04250       -0.80150        1.10240
H          0.76100        1.92720        0.78230
H          0.15220        1.99250       -0.86960
H         -0.98180        1.93180        0.48610
H         -0.66370        0.17840       -2.72330
H          0.01780       -1.29460       -3.00430
H          0.20750       -3.89350        0.90170
H          0.02990       -0.54380        2.07380
