14
gdb 19334	4.9605	1.73589	1.53022	4.6443	66.14	-0.2494	-0.006	0.2434	821.2367	0.107867	-341.503931	-341.497601	-341.496657	-341.534227	24.837
N          0.14520       -1.10150        0.05430
C          0.05310        0.05080        0.00040
C         -0.11460        1.47080       -0.05400
C          0.25930        2.28490       -1.24150
N          1.06960        2.42300       -0.02770
C          0.32370        3.22080        1.03280
C         -1.06760        3.69090        0.71500
C         -0.83010        2.25140        1.07480
H          0.79540        1.76100       -2.02710
H         -0.37970        3.08600       -1.59270
H          0.92990        3.63440        1.82680
H         -1.50500        4.26480        1.52660
H         -1.40080        4.01830       -0.26270
H         -1.28640        1.75040        1.91660
