13
gdb 11098	7.10365	1.14256	1.08406	4.0529	59.6	-0.2695	-0.05	0.2196	1031.199	0.094274	-398.587729	-398.580211	-398.579267	-398.620918	25.402
O         -0.37200        0.20040       -0.04630
C          0.03550        1.29710       -0.31510
C          1.37290        1.85130        0.13360
C          1.29560        2.70540        1.43100
C          2.13700        1.55130        2.03880
O          2.21700        0.87900        0.76840
C          3.44990        1.92200        2.57090
N          4.47610        2.23370        3.00060
H         -0.56680        2.02620       -0.90670
H          1.86940        2.34030       -0.71480
H          1.80740        3.66480        1.38050
H          0.30470        2.83110        1.86750
H          1.60910        0.94210        2.78110
