19
gdb 13940	3.37475	1.81364	1.48067	1.8993	71.46	-0.2139	0.0712	0.285	925.1568	0.165453	-365.012173	-365.00429	-365.003346	-365.044536	29.32
C         -0.14500        1.48350       -0.18030
N         -0.08410        0.06880        0.10340
C         -1.29270       -0.65230        0.53280
C         -0.39090       -1.55060        1.41310
C          0.69970       -0.47180        1.21830
C          2.19780       -0.78130        1.05960
O          2.52350       -0.07010        2.27160
C          1.16530        0.37950        2.43570
H          0.86100        1.87070       -0.37380
H         -0.74240        1.64820       -1.08360
H         -0.59330        2.08340        0.63310
H         -1.98390       -0.03550        1.13090
H         -1.85940       -1.12380       -0.27760
H         -0.71770       -1.73340        2.43770
H         -0.13410       -2.49980        0.93790
H          2.48530       -1.83950        1.10720
H          2.65370       -0.32410        0.17070
H          1.07500        1.46680        2.31150
H          0.75100        0.09730        3.41210
