14
gdb 3487	4.95109	3.60527	3.13409	1.1491	55.48	-0.23	0.0734	0.3034	513.8613	0.11675	-324.508933	-324.504366	-324.503422	-324.536952	19.333
C          0.03490        1.53680        0.04050
C          1.56680        1.65410       -0.04020
N          1.93150        1.02560        1.28290
C          1.52500       -0.23920        0.61640
C          0.08240       -0.00230       -0.00520
O          0.61980       -0.23040       -1.34560
C          1.84470        0.25940       -0.79840
H         -0.34300        1.96050        0.97210
H         -0.50540        1.92820       -0.82280
H          2.02860        2.60420       -0.30100
H          2.94900        1.00440        1.35970
H          1.78180       -1.20590        1.04590
H         -0.79540       -0.60130        0.22730
H          2.74250        0.09740       -1.39470
