17
gdb 2036	4.3198	2.50673	2.2171	1.8126	63.3	-0.2495	0.0875	0.337	689.5641	0.147343	-309.686348	-309.679417	-309.678472	-309.716532	27.007
C         -0.03240        1.54240        0.08370
C          0.00640        0.01950        0.01330
C         -1.37480       -0.58570       -0.23040
C          1.10720       -0.60560       -0.93880
C          1.73410       -1.27050        0.29060
O          2.09040       -0.22340        1.20430
C          0.73450       -0.67770        1.18990
H          0.95690        1.93850        0.32570
H         -0.35080        1.97030       -0.87370
H         -0.73760        1.88400        0.85040
H         -1.78350       -0.25120       -1.19020
H         -1.33760       -1.68060       -0.24500
H         -2.07830       -0.28540        0.55480
H          0.68420       -1.31510       -1.65460
H          1.75940        0.09840       -1.46190
H          2.29160       -2.19720        0.36380
H          0.31760       -1.03020        2.12820
