13
gdb 14293	3.87983	1.97306	1.89062	4.2551	52.96	-0.2534	0.0402	0.2936	735.0302	0.096564	-435.752968	-435.746386	-435.745442	-435.783755	24.609
O         -0.21260        1.42820        0.04730
C         -0.08250        0.04870        0.00090
C         -1.35460       -0.79370        0.04170
N         -2.56610       -0.14340       -0.34150
C         -2.46050        0.44630       -1.58740
O         -3.22010        1.19350       -2.12940
O         -1.27860        0.01550       -2.16650
C         -0.53290       -0.71690       -1.22320
H          0.12410        1.79860       -0.77670
H          0.77480       -0.36830        0.52860
H         -1.43180       -1.67870        0.66180
H         -3.15260        0.32770        0.32900
H          0.03420       -1.53000       -1.65750
