20
gdb 15437	4.48993	0.91529	0.83352	2.0999	72.55	-0.2433	0.0819	0.3252	1420.4103	0.175209	-386.105746	-386.096186	-386.095241	-386.140717	33.645
C          0.13290        1.09310       -0.51330
O         -0.17270        0.17630        0.51710
C         -1.37630       -0.49110        0.31160
C         -1.40870       -1.69770       -0.59670
C         -1.51440       -1.85630        0.91290
C         -0.38080       -2.47910        1.69930
C         -0.41650       -4.00260        1.66070
O          0.66330       -4.48370        2.44770
H          1.08740        1.55900       -0.25750
H          0.22350        0.59310       -1.48830
H         -0.63470        1.87760       -0.59790
H         -2.25110        0.16220        0.31740
H         -2.28100       -1.87440       -1.21660
H         -0.46380       -1.98370       -1.04810
H         -2.50720       -2.08960        1.29110
H          0.58010       -2.13130        1.31040
H         -0.42760       -2.15630        2.74630
H         -1.38370       -4.36320        2.04950
H         -0.33820       -4.34810        0.61740
H          0.64990       -5.44460        2.42060
