20
gdb 10600	2.95984	1.51787	1.20857	2.4837	71.27	-0.2513	0.0633	0.3146	1075.7553	0.17637	-386.122242	-386.113119	-386.112175	-386.15556	34.056
C          0.01400        1.46940       -0.19800
C          0.08150       -0.02250        0.05410
C          1.38740       -0.77720        0.00480
C          0.64320       -0.64120        1.31910
C          1.24690        0.22330        2.41540
O          2.31140       -0.41440        3.10030
C         -0.06320       -1.87800        1.83860
O          0.80960       -2.75320        2.56490
H          0.91350        1.98830        0.14310
H         -0.08640        1.66660       -1.27080
H         -0.84650        1.92470        0.30460
H         -0.77090       -0.56010       -0.35760
H          1.41050       -1.74360       -0.49090
H          2.30130       -0.20230       -0.10650
H          1.66280        1.14450        1.99840
H          0.44710        0.52040        3.11640
H          1.98070       -1.28690        3.35380
H         -0.84550       -1.60330        2.55500
H         -0.54570       -2.41930        1.01140
H          1.50880       -3.02160        1.95730
