13
gdb 21706	8.30442	1.19493	1.04462	11.4705	73.24	-0.1917	-0.0586	0.1331	1044.4065	0.098092	-390.950251	-390.942995	-390.942051	-390.982123	25.395
N         -0.03280        1.36120        0.00860
C          0.01970        0.02340        0.00120
N          1.11260       -0.68150       -0.01080
H          2.02920       -0.24630       -0.01550
C          1.15630       -2.09250       -0.01860
N          2.33110       -2.72890       -0.03080
C          1.86480       -3.99870       -0.03370
N          0.52740       -4.10730       -0.02480
N          0.05410       -2.82900       -0.01410
H          0.79340        1.93680        0.00540
H         -0.92370        1.82470        0.01790
H         -0.90580       -0.54400        0.00520
H          2.51400       -4.86340       -0.04320
