20
gdb 10301	2.60438	1.48004	1.18843	1.187	76.7	-0.2583	0.0445	0.3028	1133.6703	0.174059	-348.980822	-348.970914	-348.96997	-349.015109	36.354
C         -0.05220        1.55630        0.06710
C         -0.05030        0.03140       -0.04500
C          0.75820       -0.51080       -1.24660
C          2.16260       -0.10610       -1.17860
C          3.33010        0.17240       -1.08480
C          0.66640       -2.06310       -1.33010
C          1.22650       -2.62120       -2.63830
O          1.27290       -2.66910       -0.19920
H          0.96290        1.94460        0.19080
H         -0.48060        2.02130       -0.82820
H         -0.64580        1.88180        0.92680
H          0.35060       -0.42190        0.86660
H         -1.07920       -0.33390       -0.14990
H          0.32300       -0.10180       -2.16970
H          4.35350        0.44990       -1.02240
H         -0.39540       -2.32500       -1.25290
H          1.15840       -3.71220       -2.63330
H          0.67020       -2.24150       -3.50200
H          2.27760       -2.33960       -2.76190
H          2.19660       -2.38650       -0.19060
