17
gdb 18775	4.05192	2.3795	2.08639	1.8016	70.07	-0.2238	0.0815	0.3053	732.3587	0.143916	-326.648373	-326.642306	-326.641362	-326.678122	25.018
C         -0.04570        1.43830       -0.01490
C          0.06400       -0.04790        0.09450
C          0.99070       -0.92720       -0.67560
C          1.03940       -2.18410        0.21540
C          1.06210       -1.68450        1.68300
C         -0.25620       -0.96400        1.30150
C         -0.51600       -2.02090        0.18160
N         -0.49140       -0.98460       -0.94710
H          0.67420        1.93590        0.64530
H          0.15350        1.76050       -1.04170
H         -1.04960        1.78300        0.25580
H          1.69460       -0.58040       -1.42320
H          1.58090       -3.06300       -0.12820
H          0.88720       -2.50120        2.39110
H          1.91100       -1.07850        2.01490
H         -0.99320       -0.63460        2.03180
H         -1.25790       -2.81640        0.19070
