15
gdb 17993	3.91084	1.83033	1.56705	4.2865	64.36	-0.2709	-0.0025	0.2684	832.1679	0.119926	-362.636231	-362.629491	-362.628547	-362.667609	25.108
N         -0.40950       -1.03450       -0.77760
C         -0.24730        0.04350       -0.39340
C         -0.02000        1.41310        0.07560
O         -0.05590        1.54020        1.51150
C          1.24540        2.18200        1.53720
C          2.39420        1.19440        1.82780
C          2.55100        0.94480        0.29230
C          1.42330        1.97250        0.00580
H         -0.76430        2.06900       -0.39420
H          1.21060        3.14390        2.05280
H          3.26840        1.66450        2.28530
H          2.09130        0.33840        2.43350
H          3.51760        1.26290       -0.10240
H          2.35500       -0.07120       -0.05710
H          1.60260        2.75930       -0.72410
