17
gdb 9475	2.87766	1.67547	1.52037	4.8579	68.47	-0.2755	0.0307	0.3062	928.1148	0.141737	-363.870275	-363.862035	-363.861091	-363.902528	30.784
C          0.32540        1.42460       -0.04600
C         -0.01880       -0.07050       -0.03460
C          0.87340       -0.92210       -1.00210
C          1.80970       -1.26490        0.18650
C          0.67430       -0.85460        1.15590
O          0.95770       -0.18880        2.34840
C         -1.45640       -0.26930       -0.15500
N         -2.59540       -0.45000       -0.24590
H          1.41000        1.57290       -0.01970
H         -0.05170        1.89950       -0.95550
H         -0.11600        1.93090        0.81640
H          0.34130       -1.79590       -1.38130
H          1.30430       -0.37680       -1.84350
H          2.18700       -2.28570        0.26420
H          2.65920       -0.57710        0.25040
H          0.05880       -1.71500        1.42910
H          1.60700        0.50020        2.17290
