12
gdb 21371	5.58004	2.23738	1.59703	5.0688	60.61	-0.218	0.0107	0.2287	715.3793	0.088518	-373.720124	-373.71446	-373.713515	-373.749627	21.779
N         -0.04970        1.35510        0.01050
C          1.28440        1.77340       -0.00060
N          2.14760        0.79350       -0.01450
C          1.36430       -0.34910       -0.01300
C          0.02030       -0.01070        0.00220
N         -0.70900       -1.14520        0.00380
N          0.12330       -2.23920       -0.01060
C          1.36550       -1.76650       -0.02040
H         -0.86040        1.94870        0.02170
H          1.52410        2.82690        0.00270
H         -1.70160       -1.29340        0.01160
H          2.19260       -2.46000       -0.03230
