20
gdb 6545	2.70154	1.87262	1.63017	1.7967	70.	-0.2586	0.078	0.3367	933.5274	0.174114	-386.133379	-386.12421	-386.123266	-386.166228	35.261
C         -0.25140        1.45250       -0.06380
C          0.05860       -0.05000        0.05820
C          0.86320       -0.34850        1.32530
O         -1.16580       -0.76570        0.18820
C          0.79700       -0.55830       -1.19970
C          2.03680        0.17880       -1.65470
C          0.60790       -1.95980       -1.59770
O         -0.11270       -0.90610       -2.26420
H          0.65210        2.06870       -0.03920
H         -0.78360        1.66120       -0.99800
H         -0.89380        1.75040        0.76880
H          0.28320       -0.04970        2.20310
H          1.07260       -1.41870        1.40360
H          1.81000        0.19800        1.33870
H         -1.54600       -0.79140       -0.70130
H          2.80700        0.17240       -0.87700
H          2.44890       -0.29470       -2.54910
H          1.81060        1.22040       -1.89850
H          1.36630       -2.44940       -2.20640
H         -0.00550       -2.61320       -0.98360
