17
gdb 2579	2.99162	2.69303	1.76658	2.1303	60.25	-0.252	0.08	0.3321	776.0873	0.146925	-346.821929	-346.813955	-346.813011	-346.853955	28.922
C          1.17150       -0.69250       -1.12220
O          0.31140       -0.23770       -0.08960
C          0.62290       -0.72330        1.19570
C          1.79820       -0.00510        1.82160
O          1.58690        1.39430        1.84790
C         -0.57080       -1.07340        2.02680
C          0.33900       -2.16920        1.50340
H          1.18050       -1.78860       -1.18400
H          0.78040       -0.28520       -2.05740
H          2.20440       -0.34310       -0.99140
H          1.93160       -0.33920        2.85580
H          2.72680       -0.25390        1.28020
H          1.16020        1.61130        1.01000
H         -0.54770       -0.83220        3.08360
H         -1.53930       -0.96820        1.55230
H         -0.04330       -2.78430        0.69640
H          0.98820       -2.69030        2.19930
