15
gdb 4810	6.27441	1.19576	1.04501	0.9857	64.74	-0.187	0.0328	0.2199	1073.6563	0.11955	-399.822284	-399.814391	-399.813446	-399.854719	29.056
O          0.66830        0.27510        0.75620
C         -0.11900        0.29880       -0.43440
C         -1.49920       -0.22720       -0.21390
C         -2.73340        0.20810       -0.65950
C         -3.70360       -0.70710       -0.16450
O         -5.05680       -0.68020       -0.34940
C         -3.04770       -1.66680        0.57320
N         -1.70430       -1.36120        0.52170
H          0.19990        0.79940        1.41540
H         -0.18180        1.30660       -0.86930
H          0.44130       -0.32270       -1.14420
H         -2.91430        1.07510       -1.27860
H         -5.27160        0.07620       -0.90200
H         -3.42580       -2.51060        1.12450
H         -0.97130       -1.83930        1.01630
