12
gdb 5449	3.76234	1.96957	1.29279	3.3737	65.58	-0.202	0.0182	0.2202	858.0459	0.084358	-377.525307	-377.518335	-377.517391	-377.556266	26.277
O          0.10490        1.32370        0.12970
C          0.05910       -0.01230       -0.00220
C          0.02110       -0.85030       -1.09830
N         -0.01880       -2.17120       -0.66070
C         -0.00480       -2.11340        0.64090
N          0.04230       -0.81290        1.10070
C          0.02330       -0.41740       -2.44090
C          0.02810        0.02900       -3.56160
H          0.10970        1.69980       -0.76060
H         -0.02660       -2.95400        1.31720
H          0.06160       -0.49280        2.05480
H          0.03150        0.39370       -4.55840
