16
gdb 9935	3.23321	1.54099	1.41362	1.5453	68.57	-0.233	0.0185	0.2514	956.7258	0.12717	-383.681767	-383.672873	-383.671929	-383.714674	32.895
C         -0.03550        1.56280        0.03880
C          0.03690        0.05380       -0.00900
C          1.33140       -0.67360       -0.29820
O          2.52360        0.02700       -0.42150
C          0.71810       -0.73650        1.10340
O          1.40530        0.06310        2.04840
C          0.14140       -1.94200        1.61680
C         -0.31220       -2.96700        2.05580
H          0.92060        2.00310        0.32430
H         -0.30060        1.95290       -0.94900
H         -0.79230        1.90020        0.75310
H         -0.85310       -0.43790       -0.39150
H          1.30680       -1.56380       -0.91850
H          2.71070        0.39260        0.45580
H          1.89910       -0.53590        2.62060
H         -0.72580       -3.86620        2.44080
