17
gdb 17876	3.29571	2.05785	1.87464	1.8538	67.53	-0.2371	-0.0088	0.2283	799.8772	0.145382	-363.862577	-363.856018	-363.855074	-363.893192	25.864
O          0.00040        0.01460       -0.08430
C         -0.01380        1.20590        0.02960
C         -1.08620        2.30560       -0.00760
C         -1.30400        2.86750        1.41140
C         -0.01710        3.57700        1.89220
C          1.27300        2.90180        1.37230
C          1.02740        2.33380       -0.03970
N         -0.05100        3.16580       -0.70630
H         -2.01350        2.11920       -0.55370
H         -2.13920        3.57530        1.41370
H         -1.58470        2.04160        2.07550
H         -0.03660        4.59820        1.50640
H         -0.00150        3.64880        2.98350
H          2.08870        3.63170        1.34960
H          1.59560        2.08400        2.02720
H          1.94230        2.17190       -0.61370
H         -0.06290        2.92720       -1.69620
