20
gdb 12924	3.34849	1.54342	1.27969	1.7518	75.3	-0.2279	0.0774	0.3053	1058.6504	0.176179	-348.968185	-348.959653	-348.958709	-349.001222	31.769
C          0.19500        1.49100        0.15150
C         -0.16510        0.01760       -0.07480
C          0.56630       -0.57530       -1.26140
C          1.91340       -1.23390       -1.16320
O          2.05710       -1.93100        0.07980
C          0.97640       -2.82690       -0.29010
C          0.71010       -2.05720       -1.58430
C          0.31040       -2.68190       -2.88900
H          1.26740        1.60620        0.33970
H         -0.05700        2.10220       -0.72250
H         -0.34300        1.90230        1.01120
H          0.08480       -0.55420        0.82390
H         -1.24820       -0.07990       -0.22380
H          0.46940        0.00460       -2.18010
H          2.82040       -0.92930       -1.67480
H          1.36500       -3.83700       -0.47030
H          0.18450       -2.86910        0.46730
H         -0.75160       -2.95670       -2.89310
H          0.47040       -1.99040       -3.72240
H          0.88960       -3.59010       -3.09250
