17
gdb 16812	3.75646	1.87798	1.42547	2.5212	68.13	-0.2399	-0.0218	0.2182	889.3832	0.142965	-363.867959	-363.860858	-363.859913	-363.899074	27.648
C          0.03410        1.59740       -0.01670
C          0.01680        0.07520        0.01370
C          0.60270       -0.62840       -1.22730
C          1.24730       -1.90540       -0.66230
O          1.47930       -2.92280       -1.26270
C          1.46650       -1.66640        0.80200
C          2.18460       -0.38980        1.11750
N          0.73530       -0.45340        1.21680
H          1.05060        1.98190       -0.15220
H         -0.57840        1.97190       -0.84250
H         -0.36210        2.00310        0.91850
H         -1.01800       -0.26210        0.14390
H         -0.14750       -0.88830       -1.97590
H          1.36850       -0.03010       -1.73600
H          1.50850       -2.51610        1.47440
H          2.70810       -0.31500        2.06580
H          2.65070        0.15540        0.30030
