15
gdb 18208	4.28699	1.76233	1.44859	4.8877	64.71	-0.2803	0.0164	0.2967	855.6035	0.120626	-362.662364	-362.65573	-362.654786	-362.69328	25.112
N          0.06090       -1.16780       -0.12440
C          0.03760       -0.01510       -0.05910
C          0.03240        1.45530       -0.02720
O         -0.59000        1.87770        1.18210
C         -0.07790        3.17070        1.52130
C          1.34030        3.20420        0.98580
C          2.18220        1.98710        1.26510
C          1.42030        2.08830       -0.02930
H         -0.53230        1.80760       -0.90550
H         -0.68210        3.96440        1.05650
H         -0.15690        3.26310        2.60870
H          1.80920        4.16400        0.80630
H          3.25860        2.09920        1.21090
H          1.83470        1.27790        2.00980
H          1.93660        2.18920       -0.97520
