13
gdb 7877	3.86696	1.83408	1.25358	1.9621	62.53	-0.266	-0.087	0.179	896.2212	0.095907	-398.688281	-398.681108	-398.680164	-398.719898	25.832
C         -0.03360        1.49440        0.05000
C         -0.00820        0.01020       -0.04690
C         -0.03820       -0.81000       -1.10370
C          0.01060       -2.23130       -0.63950
O          0.00170       -3.24270       -1.29500
N          0.07080       -2.15940        0.75690
C          0.06350       -0.84280        1.20120
O          0.10570       -0.46540        2.34620
H          0.85950        1.85850        0.56950
H         -0.08710        1.96120       -0.93530
H         -0.89040        1.82350        0.64800
H         -0.08930       -0.55950       -2.15410
H          0.11220       -2.96340        1.36240
