19
gdb 19403	3.08832	2.10978	1.60673	1.5378	75.03	-0.2228	0.087	0.3099	882.7706	0.165794	-327.865775	-327.858304	-327.85736	-327.897036	29.583
C         -0.21260        1.55260       -0.01950
C          0.05450        0.05830        0.01160
N          0.99970       -0.49690       -1.03820
C          2.35750       -0.00450       -0.72800
C          1.82100       -1.11290        0.08480
C          0.88420       -0.58050        1.14080
C          1.21800       -0.06490        2.51150
C          0.36600       -1.30440        2.34270
H          0.69290        2.14450        0.14050
H         -0.64350        1.83870       -0.98450
H         -0.92930        1.82700        0.76240
H         -0.89050       -0.48010       -0.11710
H          3.06810       -0.24550       -1.51300
H          2.49750        0.97380       -0.27620
H          2.19230       -2.13170        0.02370
H          2.23460       -0.18420        2.87280
H          0.73020        0.84530        2.84600
H         -0.69440       -1.23340        2.56570
H          0.80760       -2.26440        2.59140
