18
gdb 11045	4.11471	1.70356	1.43494	1.5656	67.55	-0.2466	0.0722	0.3187	914.5152	0.153666	-384.932306	-384.924694	-384.92375	-384.963648	29.818
C          0.03920        1.53550       -0.01830
C          0.06460        0.02330        0.13570
O          0.67690       -0.53550       -1.03840
C          1.21020       -1.80980       -0.71930
C          1.61800       -1.73190        0.74570
O          1.85340       -2.91290        1.44000
C          2.38440       -0.51470        1.14670
C          0.87240       -0.53560        1.29590
H          1.05540        1.93840       -0.04930
H         -0.47200        1.81350       -0.94450
H         -0.49270        1.99440        0.82080
H         -0.97130       -0.35000        0.22200
H          0.45880       -2.61160       -0.84310
H          2.03860       -2.01020       -1.40680
H          1.03130       -3.41640        1.46530
H          2.95310       -0.59960        2.06540
H          2.83460        0.10150        0.37500
H          0.44170       -0.55000        2.29020
