15
gdb 3033	5.36104	1.78885	1.43825	0.9912	62.25	-0.2497	0.0331	0.2828	840.6233	0.123115	-308.449457	-308.44201	-308.441066	-308.481426	26.902
C          0.69620       -0.48040        0.87530
C          0.24830        0.49140        0.32810
C         -0.32430        1.65670       -0.35200
O          0.62680        2.53410       -0.93130
C          1.33310        3.30550       -0.00350
C          2.64170        2.80550        0.54930
C          2.61000        3.90790       -0.49100
H          1.09470       -1.33540        1.36310
H         -0.95550        1.31950       -1.18120
H         -0.97400        2.20420        0.34940
H          0.69350        3.90140        0.64910
H          2.90130        3.05420        1.57240
H          2.96400        1.82560        0.22030
H          2.91050        3.64470       -1.49870
H          2.84780        4.92320       -0.19490
