9
gdb 759	9.94981	3.71927	2.71196	5.0217	41.95	-0.2338	-0.0171	0.2167	438.4749	0.061867	-317.386479	-317.381399	-317.380455	-317.414547	18.297
N          0.02280        1.38600        0.18270
C         -0.02870        0.02930        0.05720
C         -1.08900       -0.85180        0.01170
N         -0.54390       -2.09930       -0.05110
N          0.69970       -2.09350       -0.05280
O          1.10530       -0.63790        0.02000
H          0.89150        1.81920       -0.09010
H         -0.80200        1.89360       -0.09420
H         -2.15000       -0.67640        0.02510
