17
gdb 9115	6.37427	0.83772	0.77379	2.7991	70.54	-0.2576	-0.039	0.2186	1455.9166	0.138007	-401.001969	-400.992378	-400.991434	-401.037474	32.074
C          0.07850        1.42220        0.13270
N          0.05360       -0.02540        0.12050
C          0.52780       -0.60600       -0.88560
O          0.50570       -1.95540       -0.97850
C          1.19620       -2.54530       -2.07760
C          2.64290       -2.88460       -1.73930
C          0.38180       -3.77260       -2.48110
O          0.83620       -4.70250       -3.09130
H          0.53860        1.87130       -0.76280
H         -0.94390        1.80600        0.22260
H          0.62760        1.77150        1.01430
H          0.97290       -0.10140       -1.75900
H          1.16140       -1.86080       -2.94240
H          3.07940       -3.46190       -2.55750
H          3.22990       -1.97550       -1.58540
H          2.68290       -3.48560       -0.82720
H         -0.68370       -3.71980       -2.17020
