16
gdb 3438	4.43191	2.96448	2.13779	1.4823	64.88	-0.2298	0.0152	0.245	657.6353	0.138727	-288.621895	-288.615793	-288.614849	-288.651438	24.126
C         -0.08460        1.57320        0.04410
C          0.02380        0.04180        0.00560
C          0.81750       -0.48930       -1.17860
C          1.81200       -1.30180       -0.81580
C          1.88040       -1.41000        0.67190
N          2.17880       -0.09640        1.31780
C          0.77880       -0.55980        1.19520
H          0.90950        2.01540        0.14520
H         -0.54790        1.95870       -0.87000
H         -0.69640        1.90060        0.89140
H         -0.99320       -0.37720       -0.01850
H          0.59310       -0.18830       -2.19670
H          2.50960       -1.79210       -1.48430
H          2.21280       -2.31800        1.16370
H          2.48380       -0.26830        2.27480
H          0.23710       -0.81290        2.10050
