14
gdb 12186	3.50492	1.53383	1.27078	5.4165	63.64	-0.2711	-0.0518	0.2194	962.4572	0.106302	-378.723954	-378.716157	-378.715213	-378.756559	27.56
C          0.24780        1.58160       -0.04830
C          0.07170        0.07450        0.05260
N          0.95960       -0.74870       -0.81920
C          1.35040       -1.66890        0.27410
C          2.77650       -1.93610        0.40660
N          3.90660       -2.14250        0.53240
C          0.68810       -0.64520        1.26110
O          0.69970       -0.49190        2.43780
H          1.30330        1.85060        0.03780
H         -0.12410        1.94690       -1.01000
H         -0.31220        2.07860        0.74950
H         -0.99410       -0.19390       -0.02290
H          0.50330       -1.20340       -1.60080
H          0.80050       -2.62110        0.31080
