15
gdb 7298	3.90043	1.33723	1.10034	5.4561	62.91	-0.2586	0.0191	0.2776	1049.6964	0.118729	-396.025279	-396.016497	-396.015553	-396.059285	30.307
C         -0.35670        1.36120        0.05910
N         -0.12100       -0.06800       -0.05110
C          0.01130       -0.84760        1.16340
C         -1.20320       -0.81290        1.99230
N         -2.14940       -0.75330        2.65260
C          0.04320       -0.74110       -1.25080
N          0.00090        0.05280       -2.38390
O          0.17470       -1.95170       -1.31270
H          0.57500        1.94490        0.08880
H         -0.97210        1.70790       -0.77380
H         -0.91430        1.56400        0.97730
H          0.21700       -1.87660        0.85730
H          0.85160       -0.49500        1.77730
H          0.34530        0.99820       -2.33990
H          0.27830       -0.45610       -3.20910
