16
gdb 2420	4.32599	3.32894	2.45938	1.9572	64.67	-0.2267	0.0926	0.3193	615.8041	0.13753	-288.545722	-288.539859	-288.538915	-288.574909	23.45
C         -0.00500        1.52290       -0.01830
C          0.02150        0.01680       -0.04380
C          0.52550       -0.94480       -1.11860
N          0.05250       -1.94350       -0.06940
C          0.54110       -0.98190        1.04640
C         -0.80390       -1.07210        1.77310
C         -1.12830       -0.99830        0.27820
H          1.00660        1.93440       -0.10770
H         -0.60070        1.91870       -0.84840
H         -0.43860        1.89930        0.91470
H         -0.03050       -1.00570       -2.06120
H          1.60410       -0.98970       -1.30900
H          1.55760       -1.06780        1.43690
H         -1.02070       -2.02410        2.26450
H         -1.09710       -0.22050        2.39200
H         -2.08450       -1.10350       -0.23920
