22
gdb 14122	3.54149	1.56707	1.33523	0.3355	81.74	-0.2426	0.084	0.3266	1047.3219	0.200103	-313.051614	-313.043004	-313.042059	-313.084457	33.32
C         -0.19810        1.56730       -0.12570
C         -0.01310        0.04430       -0.01440
C         -1.35620       -0.65610        0.22860
C          0.73710       -0.48780       -1.21570
C          0.10780       -0.88920       -2.52350
C          0.91800       -1.90950       -1.76540
C          2.41120       -1.66380       -1.99660
C          2.23190       -0.20500       -1.46270
H          0.76090        2.07770       -0.26140
H         -0.83410        1.81840       -0.98200
H         -0.66970        1.97360        0.77540
H          0.62060       -0.14820        0.86470
H         -2.07340       -0.43610       -0.56960
H         -1.23840       -1.74280        0.28900
H         -1.80050       -0.31500        1.16910
H         -0.96510       -1.04940       -2.50550
H          0.47730       -0.48470       -3.46460
H          0.47440       -2.83880       -1.42580
H          3.05460       -2.26330       -1.34850
H          2.76070       -1.77350       -3.02910
H          2.46000        0.60860       -2.15960
H          2.78800       -0.03260       -0.53680
