9
gdb 3818	9.60222	1.94542	1.61768	1.5744	50.85	-0.2906	-0.0569	0.2337	667.9519	0.056798	-338.238743	-338.233551	-338.232607	-338.267872	18.222
N          0.02150       -1.15560       -0.00390
C         -0.00310        0.00150        0.00280
C         -0.01770        1.41570        0.01080
C         -1.09620        2.25490        0.02970
O         -0.69400        3.52130        0.03120
N          0.70250        3.56580        0.01300
C          1.09050        2.32030        0.00130
H         -2.16060        2.08020        0.04280
H          2.14430        2.08430       -0.01390
