16
gdb 19376	4.30382	1.64987	1.4714	2.3863	64.35	-0.2061	0.0599	0.266	879.656	0.130632	-379.795519	-379.788437	-379.787493	-379.826843	27.509
O          0.14130        1.35900        0.19470
C          0.07040       -0.03600       -0.06340
C         -1.33450       -0.53600       -0.12700
N         -2.13130       -0.86190        1.08880
C         -1.92000       -1.88640        0.03640
C         -2.90350       -1.60760       -1.14680
N         -3.72250       -0.41820       -0.81330
C         -2.33400       -0.25110       -1.30140
H         -0.42730        1.54270        0.95040
H          0.57240       -0.18140       -1.02710
H          0.63050       -0.62050        0.68680
H         -1.45420       -1.07890        1.82350
H         -1.44070       -2.83270        0.25290
H         -3.21380       -2.32980       -1.89000
H         -4.32870       -0.25550       -1.61860
H         -2.09820        0.31960       -2.18990
