21
gdb 1974	6.49486	1.34605	1.24074	0.1113	75.11	-0.2798	0.089	0.3688	1060.4553	0.194759	-274.988525	-274.980298	-274.979354	-275.020849	30.76
C          0.03890        1.55450        0.10150
C         -0.14120        0.04170       -0.06110
C          0.65890       -0.53740       -1.22060
C          2.21200       -0.58160       -1.12830
C          2.18020       -1.97230       -1.82280
C          3.14500       -3.05360       -1.36200
C          0.67880       -2.07680       -1.43260
H          1.08990        1.81150        0.27330
H         -0.28880        2.09040       -0.79650
H         -0.53980        1.93820        0.94750
H          0.15620       -0.46620        0.86670
H         -1.20550       -0.18870       -0.20590
H          0.36210       -0.04080       -2.15320
H          2.78550        0.21800       -1.60460
H          2.54070       -0.67060       -0.08550
H          2.26570       -1.83890       -2.90770
H          3.07700       -3.20460       -0.27830
H          2.93020       -4.01360       -1.84530
H          4.18270       -2.78920       -1.59590
H          0.55610       -2.60640       -0.48010
H         -0.01550       -2.50720       -2.15950
