13
gdb 19544	4.72152	1.75113	1.64589	3.5734	63.25	-0.261	0.0017	0.2628	786.1302	0.096856	-361.404702	-361.398794	-361.39785	-361.434777	22.84
N         -0.12220       -1.18570        0.00070
C         -0.07030       -0.02830        0.00900
C          0.00580        1.38050        0.02330
C         -0.75800        2.47490        0.79580
C          0.55400        3.11830        1.24810
C          1.16770        2.46040       -0.01200
O          0.51420        3.14890       -1.11320
C         -0.68250        2.48960       -0.72950
H         -1.68700        2.35200        1.33610
H          0.61410        4.20890        1.29640
H          0.92530        2.66300        2.16840
H          2.23050        2.29480       -0.16450
H         -1.52420        2.46870       -1.40770
