16
gdb 7308	2.94957	1.71742	1.21593	2.382	62.36	-0.2411	0.0065	0.2476	983.5233	0.130439	-417.126672	-417.118032	-417.117088	-417.159982	30.965
C          0.94430        1.94730       -0.03990
C          0.20290        0.61730       -0.05490
N          0.45410       -0.08920       -1.31570
C         -0.39020       -1.00550       -1.83670
O         -1.42340       -1.38290       -1.30670
C          0.61440       -0.26570        1.15290
N         -0.22930       -1.30660        1.37050
O          1.59440       -0.02230        1.83050
H          2.02540        1.78390       -0.03850
H          0.66310        2.55400       -0.90520
H          0.70410        2.49950        0.87070
H         -0.87940        0.77570       -0.00630
H          1.31520        0.10570       -1.80310
H         -0.05170       -1.38620       -2.81780
H         -0.93530       -1.53780        0.68160
H          0.03160       -1.98450        2.06880
