19
gdb 7469	3.58789	1.42377	1.2899	3.9637	74.99	-0.3034	0.0314	0.3349	1028.48	0.165375	-327.941853	-327.933488	-327.932544	-327.974601	31.296
C         -0.25020        1.71530        0.12030
C          0.06200        0.22550        0.05050
C         -1.22120       -0.60190       -0.19540
C         -1.86070       -0.30180       -1.47610
N         -2.34700       -0.05390       -2.49500
C          1.22300       -0.21410       -0.89880
C          1.77460       -1.13220        0.22470
C          0.87050       -0.38420        1.24110
H          0.66250        2.29190        0.29930
H         -0.69800        2.07370       -0.81270
H         -0.95020        1.93620        0.93510
H         -0.99330       -1.67370       -0.17260
H         -1.94430       -0.41580        0.60800
H          0.93780       -0.68000       -1.84550
H          1.89370        0.62100       -1.11760
H          1.48630       -2.17870        0.09440
H          2.85060       -1.10010        0.40610
H          1.41430        0.39090        1.78790
H          0.31240       -0.98580        1.96490
