18
gdb 10313	2.47655	1.74787	1.09404	4.3617	69.12	-0.253	0.0274	0.2804	1097.0902	0.152029	-381.116159	-381.10642	-381.105475	-381.150682	33.927
C          0.15110        1.41660        0.04900
O         -0.13440        0.04330       -0.15400
C          0.59870       -0.55720       -1.19370
C          2.04090       -0.61450       -0.86020
N          3.15230       -0.60380       -0.54440
C          0.03450       -1.97300       -1.45050
C         -1.47950       -1.92320       -1.68050
N          0.80680       -2.55630       -2.54810
H          1.19440        1.57260        0.35250
H         -0.04580        2.00340       -0.86050
H         -0.51070        1.75940        0.84640
H          0.50190        0.03060       -2.12400
H          0.24360       -2.56320       -0.55160
H         -1.86470       -2.93500       -1.84010
H         -2.00000       -1.47840       -0.82990
H         -1.71420       -1.32860       -2.57240
H          0.71880       -3.56630       -2.54440
H          0.44410       -2.23740       -3.44250
