15
gdb 14716	9.96934	0.62099	0.59107	5.647	77.1	-0.2774	-0.0501	0.2273	1793.5582	0.116946	-362.638332	-362.629363	-362.628419	-362.672991	29.896
C          0.00270        1.51520       -0.02830
C          0.01930       -0.00240       -0.02860
O          0.68720       -0.43950       -1.20360
C          0.75300       -1.84220       -1.29270
C          1.44680       -2.22720       -2.51440
C          2.01810       -2.57440       -3.51920
C          2.66490       -2.96390       -4.65690
N          3.21460       -3.29740       -5.62420
H          1.02230        1.90970       -0.03810
H         -0.52140        1.89290       -0.91030
H         -0.50650        1.88670        0.86570
H          0.53840       -0.38900        0.86410
H         -1.00680       -0.40560       -0.00810
H          1.28520       -2.27410       -0.42670
H         -0.25610       -2.29110       -1.29670
