14
gdb 225	4.6175	2.83829	2.80928	2.8176	49.7	-0.2523	-0.0258	0.2265	570.0556	0.115843	-307.582044	-307.57441	-307.573465	-307.613529	26.432
C         -0.20830        1.56200        0.01640
C         -0.04980        0.03140        0.01540
C          0.86970       -0.44320        1.14590
O         -1.32040       -0.61330        0.06050
C          0.53200       -0.37890       -1.33930
O          1.68000       -0.21060       -1.65610
H          0.76080        2.04990       -0.11740
H         -0.87850        1.88080       -0.78720
H         -0.63390        1.89380        0.97050
H          0.51230       -0.07210        2.11280
H          0.89340       -1.53570        1.18070
H          1.88610       -0.07640        0.98410
H         -1.75760       -0.35560        0.87820
H         -0.21690       -0.83530       -2.02300
