17
gdb 7984	3.43393	1.72546	1.24691	3.3158	64.25	-0.242	0.0117	0.2537	978.6188	0.143212	-401.048349	-401.040413	-401.039469	-401.080613	29.343
C         -0.18630        1.51630        0.19760
C          0.04360        0.03880       -0.05530
C          1.03690       -0.30430       -1.17550
C          1.60940       -1.64380       -0.71040
N          2.92230       -1.97490       -1.23770
C          1.52090       -1.51150        0.81960
O          2.14690       -2.12280        1.63840
O          0.61180       -0.55780        1.14160
H          0.75950        2.02040        0.41780
H         -0.63140        1.98190       -0.68750
H         -0.86290        1.66520        1.04310
H         -0.91640       -0.46290       -0.23720
H          0.56570       -0.34240       -2.15900
H          1.83520        0.44780       -1.20960
H          0.91950       -2.45320       -0.98980
H          3.58340       -1.25010       -0.96690
H          3.24930       -2.81970       -0.77390
