22
gdb 5816	3.34829	1.55499	1.31467	1.321	78.32	-0.2511	0.0706	0.3218	1059.121	0.197859	-350.210567	-350.201259	-350.200315	-350.243425	36.524
C         -0.23540        1.53510       -0.00300
C         -0.04320        0.01690        0.00890
C         -1.36280       -0.70680       -0.24190
C          1.15580       -0.43800       -0.88680
C          2.04570       -0.58540        0.37380
C          2.88520       -1.84700        0.51220
O          2.86730        0.57800        0.45770
C          0.76490       -0.47120        1.25670
H          0.71360        2.04770        0.17400
H         -0.63000        1.87130       -0.96910
H         -0.94450        1.84540        0.77390
H         -1.78630       -0.42950       -1.21470
H         -1.23140       -1.79450       -0.23380
H         -2.10450       -0.45470        0.52550
H          0.97370       -1.39570       -1.38260
H          1.52570        0.28190       -1.62050
H          3.67580       -1.86280       -0.24470
H          3.35970       -1.89260        1.50110
H          2.27340       -2.74720        0.39730
H          3.27460        0.58500        1.33120
H          0.83490        0.22480        2.09820
H          0.42150       -1.44180        1.62790
