14
gdb 5679	5.19044	2.24646	1.58342	3.8467	70.25	-0.2037	-0.0232	0.1805	756.0431	0.111306	-341.6312	-341.625619	-341.624675	-341.6607	22.203
C         -0.06600        1.46880        0.01060
C          1.40410        1.85310       -0.00120
C          2.17830        0.75440       -0.01480
C          1.31640       -0.41640       -0.01310
N          1.40910       -1.72910       -0.02120
C          0.09840       -2.15520       -0.01100
C         -0.78280       -1.09420        0.00320
N          0.01740        0.02000        0.00170
H         -0.58450        1.83910        0.90350
H         -0.60140        1.84900       -0.86810
H          1.72930        2.88350        0.00140
H          3.25760        0.71460       -0.02530
H         -0.14780       -3.20660       -0.01440
H         -1.85890       -1.04640        0.01360
