20
gdb 19159	3.27802	1.53012	1.26128	1.4159	75.11	-0.2404	0.0735	0.3139	1044.5309	0.17668	-348.967213	-348.958556	-348.957612	-349.001292	32.497
O         -0.07260        1.50550        0.00970
C          0.00950        0.08670        0.00230
C         -1.39190       -0.49810        0.01260
C         -2.45760        0.24980        0.78090
C         -2.47100        0.25600       -0.73040
C         -1.49490       -2.00080        0.00760
C         -0.56410       -2.91140       -0.75800
C         -0.55370       -2.91700        0.75350
H          0.82240        1.85470        0.00320
H          0.54950       -0.26060       -0.89300
H          0.56630       -0.26890        0.88390
H         -3.20630       -0.33620        1.30360
H         -2.16700        1.16880        1.27500
H         -2.18920        1.17900       -1.22210
H         -3.22900       -0.32570       -1.24450
H         -2.53180       -2.32840        0.01360
H         -0.99490       -3.76110       -1.27650
H          0.29110       -2.47930       -1.26520
H          0.30850       -2.48850        1.25200
H         -0.97730       -3.77050        1.27160
