16
gdb 10139	2.74147	1.4029	0.97799	1.1407	73.45	-0.2668	0.0091	0.276	1190.0459	0.126143	-346.515294	-346.505975	-346.505031	-346.54957	32.963
C          0.00490        1.49130       -0.01640
C         -0.13010       -0.01600       -0.13680
O          0.81430       -0.46350       -1.10170
C          0.81780       -1.87030       -1.28450
C         -0.41580       -2.36120       -1.92630
C         -1.43440       -2.75100       -2.42930
C          2.00030       -2.23130       -2.07090
C          2.97250       -2.55130       -2.69700
H          1.01740        1.76450        0.29350
H         -0.20180        1.97190       -0.97660
H         -0.70260        1.87570        0.72430
H          0.06780       -0.50570        0.83150
H         -1.14800       -0.29510       -0.44460
H          0.89950       -2.36330       -0.29840
H         -2.32870       -3.09970       -2.88440
H          3.83090       -2.82750       -3.25820
