22
gdb 11990	2.49332	2.07527	1.70477	0.2207	81.19	-0.249	0.0859	0.3349	944.9391	0.199704	-313.052029	-313.043459	-313.042514	-313.083995	34.104
C         -0.43110        1.53260        0.38780
C         -0.10700        0.05250        0.21410
C          0.28640       -0.45770       -1.18030
C          1.61060        0.10220       -1.61980
C          1.59440       -1.02980       -0.63350
C          1.24100       -0.55940        0.79270
C          2.22860        0.39080        1.47000
C          0.95050       -1.75360        1.70490
H          0.35160        2.18070       -0.01720
H         -1.36390        1.78260       -0.13010
H         -0.56150        1.79020        1.44480
H         -0.94560       -0.53420        0.60350
H         -0.39960       -0.90180       -1.89250
H          1.91130       -0.17230       -2.62640
H          1.92690        1.10140       -1.33270
H          2.05980       -1.98380       -0.85730
H          2.48460        1.24800        0.84200
H          1.82130        0.77880        2.41080
H          3.16170       -0.13360        1.70670
H          1.87300       -2.29120        1.95510
H          0.48840       -1.42880        2.64440
H          0.27150       -2.46420        1.22180
