22
gdb 8399	3.51676	1.63136	1.4158	0.2005	82.05	-0.2819	0.0836	0.3655	1010.4736	0.200742	-313.03252	-313.02429	-313.023346	-313.065012	32.285
C         -0.00070        1.53430        0.02160
C         -0.00500        0.00050       -0.05410
C         -1.43500       -0.55440        0.02070
C          0.71620       -0.49420       -1.29190
C          2.19800       -0.20920       -1.70160
C          1.62670       -1.11870       -2.82260
C          0.98020       -1.97930       -1.70380
C          0.34670       -0.23810       -2.79340
H          1.01790        1.93410        0.00620
H         -0.54420        1.96980       -0.82470
H         -0.48430        1.88130        0.94050
H          0.55190       -0.38230        0.81410
H         -2.03620       -0.20340       -0.82590
H         -1.44240       -1.64860        0.00510
H         -1.93300       -0.22780        0.93940
H          2.44290        0.81960       -1.98190
H          2.97290       -0.64300       -1.06190
H          2.15280       -1.47960       -3.70700
H          1.66170       -2.54900       -1.06430
H          0.10730       -2.57530       -1.98600
H         -0.57480       -0.70050       -3.15920
H          0.44960        0.78830       -3.15740
