20
gdb 10394	2.35944	1.96577	1.35907	2.3902	70.28	-0.2452	0.0727	0.3179	1006.4553	0.17648	-386.125787	-386.11698	-386.116036	-386.159178	32.528
C          0.55770       -1.04260       -1.75370
C          0.14340       -0.27650       -0.49270
C         -1.31890       -0.46030       -0.10140
C         -2.30240        0.20380       -1.06910
O         -2.15080        1.60820       -1.03710
C         -1.75550       -1.85520        0.40920
C         -2.11620       -1.11840        1.71250
O         -1.56570        0.12440        1.22200
H          1.63050       -0.92980       -1.93460
H          0.35020       -2.11480       -1.66180
H          0.03660       -0.67700       -2.64370
H          0.75670       -0.59570        0.35740
H          0.32010        0.79580       -0.62900
H         -2.12750       -0.12000       -2.10040
H         -3.32850       -0.09430       -0.79790
H         -2.18320        1.84310       -0.10000
H         -2.58160       -2.32540       -0.12800
H         -0.93640       -2.56990        0.50620
H         -3.19040       -1.03740        1.92000
H         -1.60640       -1.45500        2.62180
