18
gdb 8355	5.98819	1.04499	1.04496	0.2934	83.68	-0.24	0.0533	0.2933	1220.8917	0.154199	-310.600753	-310.59289	-310.591945	-310.634834	28.993
C         -0.01940        1.43370        0.00930
C          0.00250       -0.02150        0.00220
C          0.02040       -1.22690       -0.00400
C          0.04070       -2.66180       -0.01200
C          0.68250       -3.61630        1.05330
C          0.06740       -4.55400       -0.02270
C         -1.18710       -3.63670       -0.00840
C          0.66740       -3.60430       -1.09670
H          0.99530        1.84750       -0.00040
H         -0.54590        1.82830       -0.86700
H         -0.52560        1.82030        0.90110
H          1.77300       -3.59160        1.12480
H          0.21360       -3.61870        2.04090
H          0.08280       -5.64310       -0.02900
H         -1.79430       -3.64080        0.90060
H         -1.80780       -3.63060       -0.90840
H          0.18410       -3.59580       -2.07720
H          1.75680       -3.57870       -1.18380
