21
gdb 20083	3.12072	1.55414	1.25788	1.3076	79.86	-0.2145	0.0829	0.2974	1078.2336	0.187499	-329.084311	-329.075258	-329.074314	-329.118152	33.514
C         -1.12170        1.05860       -1.03390
C         -0.35120       -0.11140       -0.46060
C          1.13900       -0.25010       -0.55510
C          2.03340        0.76500       -1.23390
N          0.48870       -0.01100        0.73890
C          0.64850        1.24040        1.42180
C         -0.01490        1.35280        2.77010
C          1.48540        1.21350        2.67460
H         -0.53060        1.97250       -1.11470
H         -1.48350        0.80910       -2.03730
H         -1.99670        1.28330       -0.41420
H         -0.92770       -1.03720       -0.48110
H          1.52830       -1.26570       -0.63690
H          1.61490        1.77290       -1.25060
H          3.00540        0.81780       -0.73110
H          2.21470        0.46510       -2.27170
H          0.69650        2.15720        0.83580
H         -0.43170        2.31060        3.06090
H         -0.57340        0.48720        3.10630
H          1.91380        0.25650        2.94820
H          2.10380        2.07540        2.89930
