18
gdb 12051	3.37867	1.84007	1.52752	2.4068	71.84	-0.2493	-0.0211	0.2281	896.0922	0.152874	-347.786636	-347.778889	-347.777945	-347.818528	29.529
C         -0.03900        1.69870        0.33840
C          0.01410        0.18290        0.14330
C          0.96260       -0.42220       -0.94220
C          1.64760       -1.27030        0.13660
C          2.24000       -0.38270        1.19250
C          0.76040       -0.65570        1.21710
C         -1.40060       -0.35600        0.03040
O         -1.81060       -1.11270       -0.81120
H          0.95330        2.10180        0.55630
H         -0.41420        2.19880       -0.56130
H         -0.69790        1.96800        1.17230
H          0.39350       -1.00490       -1.66760
H          1.60660        0.29160       -1.46540
H          1.94610       -2.30450        0.02080
H          2.80300       -0.88710        1.97170
H          2.62880        0.59910        0.93350
H          0.28370       -1.13060        2.06760
H         -2.07370        0.00690        0.84370
