17
gdb 14068	3.6503	1.6316	1.37327	2.7398	70.61	-0.2538	0.0271	0.2809	953.8669	0.142272	-363.851389	-363.843703	-363.842759	-363.88332	28.744
C         -0.08380        1.49040       -0.07460
C          0.04170       -0.01540       -0.01950
C          1.37830       -0.68430       -0.19510
C          0.71410       -0.67820        1.15510
C          1.17000       -0.11610        2.49770
O          0.64540       -1.31940        3.15000
C          0.23210       -1.84880        1.93740
N         -0.33990       -2.93050        1.66250
H          0.80440        1.97990        0.33910
H         -0.19820        1.83360       -1.10820
H         -0.95350        1.84060        0.49170
H         -0.81200       -0.56680       -0.40470
H          1.42400       -1.63660       -0.71200
H          2.25120       -0.05030       -0.31990
H          2.24850       -0.02770        2.65450
H          0.65510        0.77840        2.85910
H         -0.51420       -3.48860        2.49880
