14
gdb 17507	5.0736	1.82346	1.66558	1.8518	67.52	-0.2378	0.0147	0.2524	786.8268	0.106496	-345.294742	-345.288476	-345.287532	-345.324848	25.233
C          0.09410       -1.21350        0.02340
C          0.02770       -0.01410       -0.02130
C         -0.08900        1.41050       -0.08220
C         -1.13760        2.22320        0.73960
C         -0.90290        3.32650       -0.28780
C          0.58310        3.18730       -0.66430
O          1.15160        2.15870        0.14330
C         -0.42450        2.32810       -1.33730
H          0.16210       -2.27250        0.06600
H         -2.13530        1.78940        0.64730
H         -0.87970        2.39800        1.78810
H         -1.46570        4.23730       -0.44280
H          1.21780        3.98690       -1.02020
H         -0.69440        2.12300       -2.36320
