16
gdb 11291	4.01643	1.53596	1.34824	1.5854	65.95	-0.2598	0.0338	0.2935	956.4088	0.129382	-383.703372	-383.695402	-383.694458	-383.736312	28.818
C         -0.12720        1.39240       -0.01520
C          0.15830       -0.09240        0.09580
C          0.77370       -0.74940       -1.15860
O          1.78320       -1.62560       -0.65670
C          1.74330       -1.55320        0.75890
O          1.17200       -0.31170        1.08300
C          0.98030       -2.68190        1.32830
C          0.37070       -3.60230        1.80280
H          0.78220        1.93720       -0.28520
H         -0.88710        1.57580       -0.78140
H         -0.49910        1.78450        0.93490
H         -0.75100       -0.63610        0.39010
H          0.03310       -1.31270       -1.73670
H          1.24860       -0.00880       -1.81330
H          2.77080       -1.56310        1.13750
H         -0.16470       -4.41790        2.22320
