17
gdb 6261	4.03455	1.06713	1.03457	3.6435	73.75	-0.2557	-0.0227	0.233	1221.3426	0.139554	-363.865598	-363.856155	-363.855211	-363.901323	33.336
C          0.20330        1.70500       -0.14620
C          0.01650        0.19580        0.04880
C          0.57030       -0.61250       -1.13040
N          0.62800       -0.23970        1.30210
C         -0.07890       -0.78680        2.33130
O         -1.28340       -0.97240        2.32210
C          0.75370       -1.14150        3.47670
C          1.41220       -1.44470        4.43610
H          1.26600        1.96350       -0.22800
H         -0.29020        2.03660       -1.06480
H         -0.22030        2.26190        0.69360
H         -1.04750       -0.02350        0.16860
H          1.64750       -0.44610       -1.25130
H          0.40440       -1.68270       -0.98160
H          0.08190       -0.31360       -2.06290
H          1.62400       -0.13270        1.41980
H          1.98060       -1.71780        5.29150
