10
gdb 1013	9.51816	1.99547	1.64963	3.5836	56.07	-0.2551	-0.0376	0.2175	670.2864	0.070143	-318.409788	-318.404445	-318.403501	-318.438964	19.114
N          0.10690       -1.15250       -0.00510
C          0.02510        0.00360        0.00250
C         -0.06440        1.41020        0.01160
C         -1.14420        2.27130        0.03070
N         -0.72290        3.56860        0.03240
C          0.59380        3.51260        0.01480
N          1.04810        2.23530        0.00170
H         -2.18990        2.00600        0.04290
H          1.26220        4.36060        0.01080
H          2.00720        1.92770       -0.01270
