20
gdb 11958	3.26064	1.71574	1.40794	0.7573	76.07	-0.2384	0.0964	0.3349	992.8107	0.175896	-348.971628	-348.963039	-348.962095	-349.004422	32.171
C          0.04500        1.29340       -0.27320
O         -0.00710       -0.03440        0.21960
C         -1.27120       -0.58430        0.19380
C         -1.89480       -1.09530       -1.08060
C         -1.62790       -2.05730        0.06340
C         -0.75700       -3.27140       -0.07660
C         -2.73870       -1.87580        1.11180
C         -2.34090       -0.36880        1.27080
H          1.08920        1.61130       -0.22770
H         -0.30600        1.34930       -1.31320
H         -0.56120        1.97840        0.33660
H         -2.91090       -0.83070       -1.36940
H         -1.19680       -1.18430       -1.90790
H          0.10830       -3.06180       -0.71320
H         -0.38120       -3.60440        0.89770
H         -1.30670       -4.10820       -0.52440
H         -3.75770       -2.07440        0.76360
H         -2.56220       -2.45050        2.02470
H         -1.90150       -0.16410        2.24990
H         -3.11370        0.37840        1.06210
