15
gdb 18950	5.76254	1.67862	1.56959	2.2243	65.83	-0.2456	-0.0355	0.2101	819.6491	0.118824	-362.561835	-362.55547	-362.554526	-362.592646	24.065
O         -0.62190        0.48060        0.66940
C          0.14110        0.86120       -0.18380
C          1.20140        1.90760        0.03730
C          1.48630        2.43800        1.43510
C          2.24510        1.12230        1.78880
C          3.52220        1.84380        2.22590
C          2.97980        2.63120        1.03170
N          2.60770        1.31870        0.28200
H          0.11830        0.43270       -1.21120
H          1.20940        2.62160       -0.79740
H          0.87430        3.06060        2.09260
H          1.81620        0.18410        2.13700
H          3.49720        2.34250        3.19760
H          4.46110        1.30770        2.06570
H          3.41500        3.46500        0.47780
