20
gdb 12570	2.97457	1.80229	1.23018	0.4679	70.6	-0.2436	0.0731	0.3166	1011.6748	0.17884	-386.139407	-386.131368	-386.130424	-386.171782	30.744
O         -0.14820        1.49390       -0.19590
C          0.00270        0.08920        0.00020
C         -1.41340       -0.47080        0.14280
C         -1.53090       -1.85440        0.80750
C         -0.51200       -2.93450        0.37120
C          0.08600       -2.79320       -1.03290
O          1.14470       -1.84770       -1.08170
C          0.75970       -0.49850       -1.20480
H          0.72910        1.88090       -0.28330
H          0.58070       -0.11510        0.91670
H         -1.99170        0.25140        0.72820
H         -1.87290       -0.48580       -0.85340
H         -1.45790       -1.73550        1.89470
H         -2.54720       -2.21950        0.62030
H          0.34020       -2.94880        1.06020
H         -0.98410       -3.92100        0.45140
H          0.53960       -3.74540       -1.32740
H         -0.68370       -2.54990       -1.78310
H          0.14320       -0.33950       -2.10580
H          1.69610        0.05710       -1.34300
