15
gdb 20881	6.90781	1.06889	0.98703	2.9806	62.94	-0.3135	-0.0679	0.2456	1169.9795	0.118266	-395.938194	-395.930603	-395.929659	-395.971128	26.428
C         -0.00330        1.54820        0.08990
C          0.00070        0.01890        0.05710
C         -1.41840       -0.56210       -0.09880
C         -1.43230       -2.05080       -0.08790
N         -1.72300       -2.81680       -1.10080
O         -1.58800       -4.08020       -0.63120
N         -1.20420       -4.02290        0.70540
N         -1.11110       -2.81290        1.02760
H          1.01210        1.93950        0.19950
H         -0.42440        1.96520       -0.83140
H         -0.59880        1.92530        0.92850
H          0.62370       -0.33770       -0.77140
H          0.44720       -0.37640        0.97620
H         -2.05100       -0.20430        0.72220
H         -1.87100       -0.22170       -1.03440
