20
gdb 15837	4.96518	1.00088	0.91762	1.073	72.11	-0.2547	0.089	0.3437	1315.2434	0.175144	-386.106639	-386.097286	-386.096341	-386.141142	32.958
C          0.17710        1.39030        0.05430
O          0.03740       -0.00920        0.02190
C          0.67800       -0.65160        1.10250
C          0.52320       -2.16840        0.94000
C          1.21820       -2.66180       -0.33390
C          1.00870       -2.84290        2.21030
C          1.68060       -4.14680        2.26250
O          2.42470       -2.93560        2.41190
H          1.23410        1.69720        0.01020
H         -0.34440        1.79240       -0.81790
H         -0.26640        1.82510        0.96440
H          1.74840       -0.38650        1.13400
H          0.23340       -0.32270        2.05810
H         -0.55460       -2.36820        0.86220
H          0.93880       -2.02320       -1.17390
H          2.30560       -2.62470       -0.21420
H          0.93240       -3.68890       -0.57780
H          0.46940       -2.53600        3.10990
H          1.59560       -4.75620        3.16160
H          1.87320       -4.70020        1.34640
