16
gdb 2468	4.61367	2.67915	2.41787	1.1203	59.68	-0.2046	0.0996	0.3042	637.9871	0.138133	-325.748658	-325.742382	-325.741438	-325.778585	23.878
C          0.65480        1.36110        0.02820
N         -0.01450        0.06420        0.00370
C          0.30310       -0.74990       -1.18120
C          1.25660       -1.83050       -0.70360
O          2.35220       -1.31010        0.06170
C          1.21670       -1.83750        0.76100
C          0.23830       -0.76130        1.19640
H          1.75380        1.29330        0.05780
H          0.36550        1.93500       -0.85800
H          0.31750        1.92660        0.90290
H         -0.59980       -1.22850       -1.59000
H          0.73230       -0.12580       -1.97110
H          1.46630       -2.71210       -1.30430
H          1.39350       -2.72500        1.36380
H          0.62370       -0.14490        2.01440
H         -0.68540       -1.24350        1.55080
