15
gdb 5600	3.68772	1.86247	1.28241	1.3493	63.37	-0.1795	0.0546	0.2341	903.8309	0.12062	-399.828996	-399.821712	-399.820768	-399.860353	27.951
O          0.69240       -0.07390        0.70210
C         -0.15330        0.31790       -0.40160
C         -1.51890       -0.27830       -0.27660
C         -1.74910       -1.52230        0.27440
O         -0.89890       -2.41470        0.82800
N         -3.08210       -1.79500        0.21740
C         -3.74000       -0.72770       -0.37530
C         -2.79880        0.21910       -0.68350
H          0.29440        0.29750        1.49830
H         -0.20270        1.41250       -0.48150
H          0.38620       -0.04310       -1.28590
H         -0.05250       -1.94060        0.90430
H         -3.50460       -2.62860        0.58730
H         -4.80730       -0.74790       -0.51660
H         -2.99190        1.16860       -1.16050
