19
gdb 19163	3.90711	1.49124	1.26017	2.6119	71.09	-0.2348	0.0643	0.2991	1015.8056	0.165763	-365.016348	-365.007983	-365.007039	-365.049115	31.359
O         -0.07160        1.51860        0.26490
C          0.03630        0.10640        0.37770
C         -1.29500       -0.52860        0.01430
C         -2.54580        0.20000        0.34300
N         -2.08040        0.09560       -1.05840
C         -1.25150       -2.03080        0.01620
C         -2.24160       -2.83360       -0.78290
C         -0.80050       -2.77410       -1.22050
H          0.79930        1.90200        0.39730
H          0.81050       -0.28520       -0.30050
H          0.31340       -0.19120        1.40190
H         -3.44670       -0.36510        0.56500
H         -2.46300        1.16540        0.83150
H         -1.63150        0.97510       -1.30630
H         -0.94440       -2.45690        0.96890
H         -2.61490       -3.75590       -0.35180
H         -2.95580       -2.27580       -1.37730
H         -0.58220       -2.17890       -2.10070
H         -0.17840       -3.65420       -1.10020
