24
gdb 6156	4.12582	1.08162	1.06056	0.06	85.72	-0.2753	0.0824	0.3577	1302.6631	0.222361	-314.279454	-314.269867	-314.268922	-314.313267	36.653
C          0.11020        1.51120       -0.14010
C          0.04330       -0.00070        0.09870
C         -1.37740       -0.55120        0.07750
C         -2.14910       -0.58070       -1.27310
C         -2.68290       -2.00720       -0.92150
C         -4.09090       -1.96090       -0.32190
C         -2.60210       -3.04880       -2.03280
C         -1.57900       -2.08800        0.18210
H          1.14300        1.87350       -0.12730
H         -0.32390        1.77850       -1.10980
H         -0.44420        2.05790        0.63100
H          0.63980       -0.52000       -0.66420
H          0.50910       -0.24160        1.06400
H         -1.97260       -0.03700        0.84150
H         -2.89610        0.19800       -1.45310
H         -1.46300       -0.60500       -2.12730
H         -4.83440       -1.70420       -1.08560
H         -4.36880       -2.93290        0.10230
H         -4.16620       -1.21630        0.47760
H         -1.59760       -3.08970       -2.46750
H         -2.84390       -4.05030       -1.65650
H         -3.30690       -2.82110       -2.84170
H         -0.69550       -2.63410       -0.16640
H         -1.87550       -2.49570        1.15330
