18
gdb 8932	3.6443	1.07269	1.0294	2.9342	64.69	-0.2481	-0.0277	0.2204	1197.5428	0.15099	-422.075793	-422.06622	-422.065276	-422.110799	33.571
C         -0.19080        1.57620        0.02550
C          0.03400        0.05070       -0.00150
C         -1.31990       -0.63970        0.04020
O         -1.78670       -1.16750        1.01620
C          0.82820       -0.44140       -1.23200
O          0.28420        0.03300       -2.46820
C          2.32530       -0.12040       -1.17890
O          2.97840       -0.60860       -2.32930
H          0.75390        2.12490       -0.02440
H         -0.82530        1.90470       -0.80570
H         -0.69540        1.86500        0.95110
H          0.57090       -0.25090        0.90470
H         -1.87350       -0.61220       -0.92520
H          0.73390       -1.53170       -1.30440
H          0.31430        0.99700       -2.45660
H          2.47050        0.96920       -1.06810
H          2.78390       -0.60100       -0.30800
H          2.38240       -0.42320       -3.06660
