12
gdb 14661	20.06296	0.53268	0.52059	4.6644	83.99	-0.263	-0.0836	0.1795	1951.1433	0.080988	-381.282296	-381.273432	-381.272488	-381.31723	28.333
O         -0.00310        1.47220        0.01040
C          0.00440        0.05440        0.00230
C         -1.36040       -0.44700        0.01250
C         -2.48490       -0.89660        0.02070
C         -3.74260       -1.39690        0.02990
C         -4.87000       -1.85010        0.03820
C         -6.21740       -2.35040        0.04850
O         -6.51160       -3.52460        0.04600
H          0.91360        1.76690        0.00410
H          0.51400       -0.34640       -0.88980
H          0.53090       -0.35650        0.88000
H         -6.99100       -1.55620        0.05990
