20
gdb 15725	2.64063	2.0173	1.34666	0.618	71.08	-0.2539	0.086	0.3399	994.5766	0.177308	-386.151082	-386.142433	-386.141489	-386.184301	31.321
C          0.52610        1.24810        0.26550
O          0.54760       -0.16050        0.14170
C          0.44150       -0.61120       -1.18600
O          1.54250       -0.21480       -1.97290
C          2.55800       -1.23260       -1.93880
C          1.98750       -2.39480       -1.11150
C          0.46940       -2.14480       -1.18410
C         -0.36540       -2.82220       -0.10180
H          1.36550        1.71120       -0.26620
H         -0.41190        1.66950       -0.12830
H          0.59760        1.47880        1.33090
H         -0.45170       -0.17160       -1.65510
H          2.76880       -1.52960       -2.97360
H          3.47780       -0.81810       -1.51170
H          2.27980       -3.37120       -1.50510
H          2.31990       -2.33200       -0.07110
H          0.11090       -2.45810       -2.17290
H         -0.04580       -2.50160        0.89220
H         -1.42710       -2.57640       -0.20860
H         -0.26850       -3.91090       -0.16450
