17
gdb 5230	7.09838	1.14263	0.99651	1.4371	71.52	-0.1787	0.0635	0.2422	1171.39	0.142953	-363.893269	-363.885314	-363.88437	-363.925972	29.253
C          0.03030        1.48780        0.07890
C         -0.65290        0.22580       -0.41360
O         -0.42110       -0.80390        0.54320
C         -0.97130       -2.00130        0.24460
C         -1.72900       -2.47170       -0.80400
C         -1.99670       -3.84890       -0.51950
C         -1.40130       -4.16100        0.67330
N         -0.77310       -3.01850        1.13560
H         -0.12780        2.30200       -0.63420
H         -0.37350        1.79290        1.04840
H          1.10650        1.32720        0.18860
H         -1.73520        0.37840       -0.52920
H         -0.25510       -0.08730       -1.38910
H         -2.05330       -1.91130       -1.66490
H         -2.56810       -4.52570       -1.13610
H         -1.36220       -5.07820        1.23670
H         -0.24800       -2.92270        1.98680
