20
gdb 8409	3.50072	1.63412	1.41041	1.7375	75.31	-0.251	0.0766	0.3276	994.0615	0.175158	-348.992109	-348.983487	-348.982543	-349.024801	32.657
C         -0.12220        1.52680        0.13820
C         -0.09520        0.01420        0.12260
C         -1.31440       -0.65120       -0.47720
O          1.16710       -0.56120       -0.28600
C          0.76490       -0.72270        1.06390
C          1.55220       -0.20680        2.27500
C          1.00130       -1.42200        3.07960
C          0.52900       -2.07590        1.74650
H          0.80190        1.93300        0.55420
H         -0.23650        1.91540       -0.87980
H         -0.96620        1.89550        0.73190
H         -1.46060       -0.31660       -1.51020
H         -1.20630       -1.73760       -0.48510
H         -2.21710       -0.39240        0.08740
H          2.63070       -0.27040        2.10190
H          1.31610        0.79350        2.64630
H          1.72670       -1.98560        3.66840
H          0.16530       -1.14740        3.72700
H         -0.48160       -2.49050        1.71780
H          1.22840       -2.83220        1.37760
