17
gdb 4913	5.19792	1.2494	1.07494	1.5259	71.95	-0.1813	0.0431	0.2244	1119.19	0.142706	-363.896122	-363.887946	-363.887002	-363.928865	30.205
C          0.04270        1.54240       -0.17190
C         -0.02520        0.04090        0.15370
C         -1.41380       -0.52040        0.07610
C         -2.15750       -1.00590        1.09990
O         -3.39150       -1.42150        0.64670
C         -3.41280       -1.19230       -0.68590
N         -4.61530       -1.48290       -1.31710
C         -2.23760       -0.64370       -1.10380
H          1.07220        1.91000       -0.11210
H         -0.32950        1.74520       -1.18100
H         -0.56900        2.11980        0.52800
H          0.63100       -0.50430       -0.53750
H          0.37730       -0.13320        1.15810
H         -1.98360       -1.13440        2.15460
H         -5.09450       -2.26780       -0.89390
H         -4.50750       -1.62590       -2.31170
H         -1.98030       -0.36520       -2.11360
