16
gdb 9743	4.05822	1.49944	1.45229	1.4655	61.66	-0.2637	-0.04	0.2237	908.8094	0.13016	-420.887735	-420.880179	-420.879235	-420.920217	27.807
O          0.03570        1.47550       -0.09760
C         -0.00480        0.07350       -0.05020
C         -1.45420       -0.49220       -0.10810
C         -1.57940       -0.96390       -1.56250
O         -0.28830       -1.46610       -1.87650
C          0.63950       -0.54830       -1.34000
C          0.71410       -0.40870        1.19060
O          1.21090        0.35280        1.98490
H          0.48780        1.75210        0.71600
H         -1.57320       -1.34630        0.56690
H         -2.16270        0.28630        0.17790
H         -2.30030       -1.77060       -1.71220
H         -1.84520       -0.12270       -2.22140
H          0.83090        0.29680       -2.01600
H          1.57880       -1.08220       -1.16380
H          0.76170       -1.50890        1.32320
