12
gdb 17013	6.97227	1.3819	1.3365	2.3135	60.51	-0.2762	-0.0264	0.2498	868.9004	0.084748	-377.468395	-377.462061	-377.461116	-377.499	23.298
N         -0.03620       -1.18160       -0.05560
C         -0.00010       -0.02810       -0.00080
C         -0.02490        1.42660        0.00150
C          0.04740        2.12520        1.39630
N          1.49310        1.64480        1.45090
C          1.35920        2.14980        0.01870
C          0.62220        3.36100        0.65210
O          0.66450        4.54630        0.71340
H         -0.76780        1.81100       -0.69900
H         -0.63580        2.01860        2.23510
H          2.07630        2.26670        2.01720
H          2.16520        2.07090       -0.70640
