13
gdb 20678	3.31049	2.3302	1.37913	2.0987	66.16	-0.2459	-0.0803	0.1656	831.7173	0.094533	-394.739311	-394.732217	-394.731273	-394.770674	25.978
C          0.05290        1.50910        0.02860
C         -0.00320        0.01420        0.01090
C         -0.10560       -0.70820       -1.12160
O         -0.15890       -2.04510       -1.18230
N         -0.10040       -2.79350        0.10180
N         -0.00790       -2.15810        1.13300
C          0.05300       -0.72080        1.25360
N          0.14990       -0.18720        2.40730
H          0.97560        1.85390        0.50690
H          0.00180        1.91940       -0.98360
H         -0.77220        1.91820        0.62100
H         -0.15550       -0.26270       -2.11200
H          0.17130       -0.91360        3.12540
