14
gdb 4896	6.64679	1.2472	1.05728	4.3879	60.02	-0.1883	0.0452	0.2335	1035.1903	0.107823	-415.907429	-415.899456	-415.898511	-415.941176	27.952
O          0.01750        1.42120        0.06600
C          0.01450        0.00810        0.00190
C         -1.40510       -0.44560        0.01220
C         -2.54800        0.26890        0.01180
N         -3.60700       -0.63990        0.02060
C         -3.15070       -1.95030        0.02870
O         -3.79270       -2.98200        0.03980
N         -1.76630       -1.79390        0.02110
H          0.92650        1.72290       -0.01280
H          0.51850       -0.35530       -0.91120
H          0.55500       -0.43690        0.85650
H         -2.68940        1.33410        0.00710
H         -4.58670       -0.42120        0.03040
H         -1.14920       -2.58650        0.03030
