12
gdb 11635	3.51877	1.8843	1.55021	4.0925	57.64	-0.2637	-0.0521	0.2116	805.6963	0.08143	-418.414028	-418.407209	-418.406265	-418.445472	24.277
O          0.03830       -0.03420       -0.08220
C          0.01750        1.15890        0.06900
C          1.22200        2.02870        0.02600
C          1.76490        3.04640        1.06750
C          2.87320        2.88800       -0.00020
O          2.57230        1.43450       -0.04940
C          1.78370        3.01660       -1.09120
O          1.54900        3.44900       -2.16370
H         -0.92620        1.72390        0.23630
H          1.26570        4.01180        1.17730
H          2.02330        2.57500        2.01700
H          3.91930        3.18340        0.02430
