14
gdb 9449	2.85767	1.80421	1.68132	2.5517	64.67	-0.2299	0.011	0.241	852.1563	0.1063	-378.692829	-378.684683	-378.683739	-378.725231	29.531
N         -0.03380        1.48840        0.12400
C          0.00840        0.03490        0.04800
C         -1.40490       -0.64870       -0.04960
N         -0.98140       -1.21000       -1.33350
C          0.25170       -0.61640       -1.38100
O          1.12180       -0.57450       -2.20520
C          0.87690       -0.51680        1.07140
C          1.61490       -0.98460        1.89620
H          0.91540        1.84780        0.16350
H         -0.45060        1.86390       -0.72450
H         -1.62080       -1.38900        0.72400
H         -2.21960        0.07870       -0.11740
H         -1.47650       -1.76250       -2.01720
H          2.26760       -1.39560        2.62650
