13
gdb 9976	2.72147	1.55841	1.03915	2.4274	64.33	-0.2772	-0.0596	0.2177	1054.9235	0.092475	-361.445134	-361.436685	-361.435741	-361.47895	28.754
O         -0.46450        0.66170       -0.70890
C          0.14940        1.01960        0.25650
C          1.33650        1.99950        0.18110
C          1.43620        2.68020       -1.20590
C          2.68250        3.40940       -1.38240
C          3.72160        3.99890       -1.50570
C          1.25250        2.94940        1.28980
N          1.14120        3.68140        2.17680
H         -0.07930        0.65230        1.27760
H          2.23720        1.38850        0.34380
H          1.33120        1.89430       -1.96020
H          0.57720        3.34680       -1.33730
H          4.63320        4.53080       -1.62490
