20
gdb 9856	4.45858	0.97054	0.93493	0.2312	83.6	-0.2409	0.0593	0.3002	1361.1646	0.174917	-311.841789	-311.832108	-311.831164	-311.877438	34.454
C          0.10890        1.45380       -0.31130
C          0.04300        0.01850       -0.07350
C         -0.00110       -1.16900        0.12280
C         -0.07570       -2.61030        0.35580
C         -1.46340       -3.20340        0.10360
C         -2.55450       -2.67410        1.01220
C         -1.81700       -3.55690       -1.31820
C         -1.51760       -4.65140       -0.31770
H          1.04210        1.73220       -0.81390
H         -0.71910        1.79180       -0.94440
H          0.05860        2.01830        0.62660
H          0.65510       -3.12080       -0.28470
H          0.22610       -2.82920        1.39010
H         -2.65220       -1.58820        0.91220
H         -3.52160       -3.12630        0.77190
H         -2.33470       -2.89500        2.06380
H         -2.84520       -3.42380       -1.63780
H         -1.08460       -3.35880       -2.09370
H         -0.58380       -5.19510       -0.42030
H         -2.34330       -5.25640        0.04180
