16
gdb 17479	3.517	2.53561	1.99457	1.1234	67.77	-0.2253	0.0157	0.2411	723.4339	0.131492	-346.569037	-346.562779	-346.561835	-346.598876	26.059
O         -0.09790        1.42290        0.00030
C         -0.01970        0.02840        0.05570
C          0.32580       -0.75970       -1.27760
C         -0.83830       -1.69150       -0.96310
C         -0.90260       -2.06430        0.54550
C          0.30690       -1.84310        1.38780
C          0.78810       -0.61630        1.16440
C         -1.38710       -0.72640        0.05690
H          0.79620        1.77650       -0.05520
H          0.07400       -0.12680       -2.13270
H          1.33530       -1.17090       -1.38700
H         -1.37480       -2.29860       -1.68240
H         -1.62350       -2.83590        0.78980
H          0.74010       -2.60030        2.02960
H          1.70680       -0.19350        1.55570
H         -2.37130       -0.29740        0.19760
