18
gdb 17696	4.92801	1.97463	1.93289	0.289	74.81	-0.2288	0.1005	0.3294	786.9354	0.155504	-310.601304	-310.595119	-310.594174	-310.631106	25.925
C          0.07110        1.54430        0.03470
C         -0.02440        0.05440       -0.00590
C          0.88980       -1.00920       -0.57770
C          0.51080       -1.02540        0.91140
C         -0.76960       -1.88990        0.85720
C         -0.51440       -3.02600       -0.16410
C         -0.25610       -1.86800       -1.15980
C         -1.20200       -0.92900       -0.31640
H          1.08720        1.86150        0.29540
H         -0.17550        1.99050       -0.93620
H         -0.61010        1.97160        0.78030
H          1.91480       -0.91750       -0.91450
H          1.24950       -0.94590        1.69910
H         -1.34640       -2.03300        1.77030
H          0.29120       -3.74050        0.03320
H         -1.43800       -3.56330       -0.40500
H         -0.32550       -1.98950       -2.24010
H         -2.23040       -0.68730       -0.57560
