16
gdb 15976	2.84568	2.05974	1.38103	2.473	64.91	-0.2437	-0.0336	0.2101	900.8195	0.128898	-383.706366	-383.698665	-383.697721	-383.739187	27.586
O         -0.64900        1.38340        0.72050
C          0.18920        0.95700       -0.03230
C          1.52660        1.63350       -0.25350
O          2.37350        0.90070       -1.15730
C          2.41360        1.99330       -2.10790
C          1.49810        2.82900       -1.21940
C          0.34090        3.70330       -1.59300
C          1.54990        4.28830       -0.89850
H          0.03420        0.04710       -0.65490
H          2.00590        1.82700        0.71570
H          3.43230        2.37890       -2.23980
H          2.00760        1.69850       -3.08390
H          0.19370        3.92540       -2.64520
H         -0.57390        3.59920       -1.01920
H          1.44760        4.58460        0.14040
H          2.22710        4.90820       -1.47790
