20
gdb 8883	4.26054	1.10396	0.9819	1.6032	71.97	-0.2639	0.018	0.2819	1277.0176	0.174664	-386.186212	-386.176092	-386.175148	-386.222186	34.68
C          0.14760        1.60840       -0.02490
C          0.14110        0.07720       -0.04030
C          0.67020       -0.56170        1.25340
C         -0.20990       -0.26810        2.48620
C          0.79550       -2.06850        1.08620
O          0.24100       -2.73690        0.24970
O          1.61190       -2.59130        2.02850
C          1.76390       -4.01480        1.98650
H          1.15180        2.00150        0.17210
H         -0.17770        2.00410       -0.99180
H         -0.52380        2.01680        0.73670
H         -0.87120       -0.29640       -0.23000
H          0.74910       -0.28020       -0.87860
H          1.67820       -0.18260        1.46450
H         -0.25420        0.80560        2.68450
H         -1.23250       -0.62600        2.32470
H          0.19070       -0.76030        3.37570
H          0.80030       -4.51170        2.12600
H          2.18270       -4.33040        1.02750
H          2.44390       -4.26600        2.80080
