15
gdb 19606	3.39498	2.43272	1.84571	2.7845	64.33	-0.2134	0.0022	0.2155	746.7792	0.118964	-362.604365	-362.597909	-362.596965	-362.634726	25.282
C          0.00900        1.53230        0.03610
N          0.06830        0.07520       -0.01130
C          0.77320       -0.56230       -1.12620
C          1.34420       -1.62390       -0.27260
C          2.29840       -0.54230       -0.86690
C          2.44510       -0.02560        0.52850
O          3.35800        0.40500        1.17560
C          1.04310       -0.60360        0.88840
H          0.98630        2.02720       -0.08640
H         -0.65970        1.88660       -0.75460
H         -0.41270        1.84030        0.99780
H          0.38080       -0.60800       -2.13530
H          1.41270       -2.69830       -0.31980
H          3.04280       -0.66110       -1.64120
H          0.74880       -0.80480        1.91600
