13
gdb 851	7.16586	1.99277	1.56923	2.2284	56.13	-0.174	0.0553	0.2293	735.898	0.102905	-340.65658	-340.649529	-340.648585	-340.687437	25.73
N          0.14810        1.39810        0.08520
C          0.01040       -0.00540        0.00510
C         -1.08610       -0.83810       -0.11640
C         -0.59330       -2.17540       -0.08330
O         -1.31430       -3.33310       -0.17820
C          0.77350       -2.12990        0.04680
N          1.12250       -0.79040        0.10000
H          0.34900        1.81630       -0.81920
H         -0.70500        1.82110        0.43030
H         -2.11230       -0.52490       -0.24270
H         -2.24310       -3.10250       -0.26450
H          1.50530       -2.91690        0.09670
H          2.03800       -0.42850        0.30050
