17
gdb 16856	3.93084	1.94089	1.45157	3.2252	69.25	-0.249	0.032	0.281	871.2564	0.144614	-363.867645	-363.860919	-363.859975	-363.898625	26.521
N         -0.13120        1.31000        0.41340
C         -0.06440        0.11040        0.01640
C         -1.25560       -0.81380        0.06010
C         -1.30890       -1.70190       -1.19410
C         -0.01710       -2.50410       -1.26540
C          1.07030       -2.16760       -2.26370
C          1.21290       -1.76070       -0.82590
O          1.09650       -0.38820       -0.52090
H          0.77790        1.76500        0.30240
H         -1.17900       -1.45500        0.94790
H         -2.14380       -0.19240        0.18150
H         -2.17510       -2.36760       -1.15280
H         -1.43440       -1.07600       -2.08400
H         -0.08710       -3.53900       -0.94570
H          1.70280       -2.96500       -2.63760
H          0.86690       -1.37330       -2.97440
H          1.95650       -2.24830       -0.20320
