15
gdb 14002	4.28574	1.51024	1.30408	3.4509	66.55	-0.2505	0.0263	0.2768	936.5469	0.118959	-362.642043	-362.634781	-362.633836	-362.673928	26.586
N         -0.03870       -1.17350        0.12270
C         -0.05160       -0.01610        0.08740
C         -0.01400        1.41380        0.03530
C          0.55720        2.21530        1.21600
C          1.33460        2.11960       -0.04010
C          2.69620        1.51510       -0.35060
C          2.79940        2.69160       -1.34730
O          1.51520        3.21780       -0.91290
H         -0.81900        1.88450       -0.51890
H          0.06010        3.15470        1.43050
H          0.89850        1.65850        2.08170
H          3.40860        1.54720        0.47530
H          2.67890        0.51330       -0.78150
H          3.60400        3.41040       -1.16690
H          2.78110        2.41630       -2.40670
