17
gdb 7309	3.67955	1.26642	0.99569	2.3217	67.65	-0.2524	-0.0246	0.2278	1158.3981	0.138652	-401.018552	-401.009088	-401.008144	-401.054134	32.234
C         -0.14730        1.61510        1.18490
C         -0.08290        0.39940        0.26620
O          0.62560       -0.67970        0.88000
C          1.95450       -0.75940        0.66450
N          2.63830       -1.63620        1.25860
C         -1.48610       -0.09240       -0.13890
C         -1.71660       -1.58400       -0.20420
O         -2.33660        0.72100       -0.41310
H          0.85120        2.03030        1.34660
H         -0.78750        2.37520        0.73400
H         -0.56610        1.33150        2.15430
H          0.41930        0.67070       -0.67640
H          2.32380       -0.01680       -0.05760
H          3.61230       -1.57400        0.97020
H         -0.97820       -2.05910       -0.85870
H         -1.57340       -2.02940        0.78500
H         -2.72600       -1.77700       -0.56790
