13
gdb 5655	5.32847	2.21799	1.5661	2.4236	65.9	-0.1865	0.0173	0.2038	744.2894	0.099139	-361.498103	-361.492469	-361.491524	-361.527511	22.717
N         -0.02320        1.38020        0.01020
C          1.29190        1.81420       -0.00040
C          2.15210        0.73150       -0.01480
C          1.29850       -0.39570       -0.01260
C         -0.02240        0.00790        0.00260
C         -0.82400       -1.17420        0.00390
C          0.08250       -2.19560       -0.01070
O          1.38320       -1.75280       -0.02100
H         -0.82620        1.98220        0.02150
H          1.51600        2.86890        0.00320
H          3.22850        0.77440       -0.02520
H         -1.89680       -1.28190        0.01390
H         -0.03610       -3.26640       -0.01540
