17
gdb 8540	3.53785	2.22488	1.65353	1.6432	68.29	-0.2182	0.0726	0.2908	821.6779	0.140324	-363.74466	-363.737363	-363.736419	-363.775752	28.281
C         -0.63450        1.42880       -0.43420
N         -0.41110        0.01920       -0.13350
C         -1.22870       -0.58150        0.95910
C         -0.11890       -1.62230        1.26710
O         -0.10920       -1.39760        2.69800
C         -0.32980       -0.05480        2.15810
C         -0.46710        1.05040        3.15820
C          0.61160       -0.30190        0.90280
H          0.18490        1.79370       -1.06220
H         -1.56120        1.52840       -1.00910
H         -0.70800        2.08830        0.44540
H         -2.31030       -0.71750        0.90750
H          0.02210       -2.62820        0.87750
H          0.43860        1.11460        3.77010
H         -0.62770        2.01480        2.67170
H         -1.31350        0.84930        3.82280
H          1.67980       -0.11120        0.78540
