16
gdb 18491	5.91091	1.20622	1.12325	3.4877	68.02	-0.2498	0.03	0.2798	1043.7215	0.131873	-342.749129	-342.741958	-342.741014	-342.781081	26.571
N         -0.00780       -1.13310       -0.24680
C         -0.03760        0.00420       -0.04420
C         -0.04010        1.44550        0.20110
C          1.36050        2.06030        0.04810
C          2.03660        2.14390       -1.34810
N          2.28470        3.62460       -1.20260
C          0.94890        4.23330       -1.11230
C          1.49140        3.58070        0.09690
H         -0.74660        1.91380       -0.49240
H         -0.42160        1.62830        1.21270
H          2.03430        1.58860        0.76670
H          2.98030        1.60220       -1.41690
H          1.41460        1.88890       -2.21310
H          0.97400        5.31830       -1.13830
H          0.12590        3.78970       -1.66980
H          1.79890        4.14890        0.96910
