13
gdb 3565	5.42173	3.13282	3.10522	0.1218	51.25	-0.2406	0.0711	0.3116	514.961	0.103611	-344.382282	-344.377621	-344.376677	-344.410416	19.287
C         -0.07640        1.61020       -0.05120
C          1.44990        1.37330       -0.01430
O          1.19640        0.20320        0.84500
C          0.00100        0.06780       -0.00610
C          0.66290       -0.30990       -1.35840
O          0.68860        0.74680       -2.33150
C          1.74830        0.66810       -1.36460
H         -0.42950        2.00810        0.89900
H         -0.52570        2.10350       -0.91030
H          2.17720        2.07390        0.39240
H         -0.76880       -0.58050        0.40920
H          0.71880       -1.32570       -1.73170
H          2.75050        0.50490       -1.74330
