22
gdb 6222	3.30111	1.5345	1.42513	1.2811	78.1	-0.2375	0.0803	0.3178	1044.8981	0.199287	-350.235737	-350.226717	-350.225773	-350.269192	34.497
C         -0.02710        1.54230        0.09470
C          0.08400        0.02960       -0.00320
C          0.79880       -0.50980       -1.24610
C          1.25730       -1.89180       -0.76510
C          1.54350       -1.67480        0.74610
C          0.98550       -2.80640        1.61380
C          3.03360       -1.45490        1.02650
O          0.86160       -0.44930        1.09190
H          0.96450        2.00200        0.03540
H         -0.64600        1.93540       -0.71830
H         -0.48350        1.83420        1.04480
H         -0.92930       -0.40840        0.04580
H          0.15320       -0.54920       -2.12760
H          1.65710        0.12940       -1.48410
H          0.45350       -2.62420       -0.89630
H          2.13390       -2.26800       -1.29840
H          1.45480       -3.76310        1.35950
H          1.16880       -2.60500        2.67360
H         -0.09440       -2.90530        1.46730
H          3.44310       -0.68280        0.36800
H          3.17660       -1.12700        2.06030
H          3.60300       -2.37790        0.87420
