17
gdb 15369	3.75271	1.24972	1.0384	3.4391	67.75	-0.2312	0.0316	0.2627	1137.1639	0.141084	-400.991416	-400.982823	-400.981878	-401.025474	30.256
C          0.09860        0.97900        0.49880
O         -0.12640       -0.06230       -0.43940
C         -1.38620       -0.64620       -0.29680
C         -1.57090       -1.97720       -0.96320
C         -1.48360       -1.89410        0.54910
N         -0.29180       -2.33650        1.20490
C         -0.30290       -3.15250        2.29120
O         -1.29670       -3.62240        2.80470
H          1.10180        1.36750        0.31010
H         -0.62900        1.79310        0.36970
H          0.03630        0.61600        1.53350
H         -2.21420        0.06310       -0.28610
H         -2.52650       -2.20280       -1.42250
H         -0.70530       -2.37630       -1.48120
H         -2.36690       -2.08750        1.14380
H          0.58310       -1.96350        0.86900
H          0.72240       -3.34330        2.66560
