16
gdb 17478	3.68458	2.55372	2.02227	1.4305	68.08	-0.2235	0.0053	0.2288	724.1462	0.130784	-346.564568	-346.558321	-346.557377	-346.594341	25.953
C         -0.02660        1.50440       -0.08810
C         -0.07390        0.01550        0.10630
O          0.34680       -0.71070       -1.14710
C         -0.75190       -1.56650       -0.98790
C         -0.87700       -2.12310        0.48890
C          0.30250       -1.89610        1.35340
C          0.74390       -0.64010        1.19290
C         -1.42270       -0.77690        0.07160
H          1.00040        1.82930       -0.28320
H         -0.64930        1.80780       -0.93370
H         -0.38240        2.01320        0.81400
H         -1.09130       -2.13050       -1.84800
H         -1.55110       -2.96060        0.62250
H          0.77940       -2.67360        1.93760
H          1.64820       -0.20780        1.60180
H         -2.43050       -0.40580        0.21020
