14
gdb 5290	4.91172	1.54114	1.18169	2.4981	64.69	-0.2435	-0.0404	0.2031	954.1791	0.107207	-382.59123	-382.584027	-382.583083	-382.623209	25.84
C         -0.02360        1.49890        0.00850
C          0.03570       -0.01980        0.00210
O          1.09370       -0.61670       -0.00880
C         -1.24460       -0.75290        0.00950
C         -2.51800       -0.25420        0.02170
O         -3.42340       -1.25350        0.02500
C         -2.72090       -2.42860        0.01490
C         -1.39080       -2.18560        0.00530
H          0.99120        1.89760        0.00140
H         -0.56760        1.86730       -0.86810
H         -0.55250        1.86040        0.89710
H         -2.92190        0.74510        0.02890
H         -3.32010       -3.32370        0.01620
H         -0.58550       -2.90150       -0.00390
