20
gdb 8957	3.24378	1.22252	1.0703	3.4186	67.67	-0.2457	0.0703	0.316	1193.2673	0.174845	-423.263444	-423.253536	-423.252592	-423.298306	35.319
C          0.15090        1.30840        0.27280
O         -0.02820       -0.06610        0.01510
C          0.60380       -0.56350       -1.16460
C          2.11720       -0.69910       -0.99380
C         -0.07080       -1.91770       -1.42730
O         -0.03090       -2.72790       -0.25200
C         -1.52380       -1.78740       -1.89810
O         -2.12720       -3.06010       -1.99560
H          1.19480        1.56140        0.50340
H         -0.17580        1.92250       -0.57980
H         -0.46550        1.55480        1.14080
H          0.38170        0.11360       -2.00610
H          2.57100       -1.04670       -1.92720
H          2.58370        0.25510       -0.73460
H          2.33950       -1.42680       -0.20900
H          0.49620       -2.46690       -2.18730
H         -0.26840       -2.13570        0.47500
H         -2.06810       -1.12900       -1.20190
H         -1.56030       -1.32800       -2.89290
H         -1.82930       -3.53670       -1.20920
