20
gdb 13284	6.37199	0.85116	0.80192	2.1166	72.38	-0.2433	0.0841	0.3274	1466.9776	0.176101	-386.109508	-386.100407	-386.099462	-386.144605	31.317
C          0.17850        1.46140        0.05120
C          0.03500       -0.04940       -0.01790
O          0.67220       -0.51020       -1.19290
C          0.60170       -1.90800       -1.35950
C          1.34580       -2.27370       -2.62830
C          2.88350       -2.16690       -2.54960
O          3.03150       -3.60210       -2.62920
C          1.61530       -3.78090       -2.82740
H          1.23440        1.74560        0.07400
H         -0.28350        1.93110       -0.82180
H         -0.30560        1.84970        0.95220
H          0.48770       -0.52290        0.86990
H         -1.03000       -0.33760       -0.02630
H          1.05480       -2.42550       -0.49500
H         -0.44950       -2.24160       -1.42080
H          0.89370       -1.76320       -3.48100
H          3.36400       -1.65930       -3.39510
H          3.28320       -1.75830       -1.61400
H          1.17470       -4.45240       -2.07820
H          1.38480       -4.16990       -3.82750
