17
gdb 14533	4.49307	1.5921	1.43505	1.9876	75.01	-0.2303	0.0441	0.2745	922.0375	0.141188	-326.642416	-326.634699	-326.633755	-326.673893	29.927
C         -0.06800        1.54660        0.02380
C          0.03390        0.03180       -0.05590
C         -1.04570       -0.63930        0.63390
C         -1.97210       -1.15990        1.19560
C          0.59290       -0.71520       -1.22110
C          1.71880        0.03480       -1.92660
C          2.40920        0.09620       -0.54040
N          1.32000       -0.71980        0.11060
H          0.64820        2.05850       -0.61990
H         -1.07180        1.85700       -0.27850
H          0.08960        1.88180        1.05380
H         -2.77910       -1.63110        1.69970
H          0.09410       -1.60230       -1.59870
H          2.25850       -0.59620       -2.63490
H          1.45810        0.97230       -2.42610
H          3.34270       -0.46730       -0.49290
H          2.57130        1.07900       -0.08960
