13
gdb 10462	3.03189	1.58065	1.17199	4.5511	59.13	-0.27	-0.0477	0.2223	978.9494	0.092859	-398.58729	-398.579341	-398.578397	-398.620763	26.99
O         -0.41260        0.28250        0.49310
C          0.24760        0.85740       -0.32900
C          1.16500        2.02980        0.00250
C          1.24480        3.05130       -1.11550
C          2.51900        3.70690       -1.47720
O          1.98840        2.65220       -2.27350
C          0.00840        3.76050       -1.40810
N         -0.98430        4.31570       -1.61160
H          0.25440        0.54760       -1.39640
H          0.83540        2.48410        0.94080
H          2.17190        1.62100        0.15480
H          2.50100        4.69350       -1.93420
H          3.40670        3.46300       -0.89640
