18
gdb 8071	3.27486	1.82285	1.47055	3.0279	67.89	-0.2525	0.0658	0.3183	907.3308	0.154455	-384.881947	-384.874396	-384.873451	-384.913624	29.618
O          0.31210        0.56350        0.94990
C         -0.14100        0.39860       -0.38760
C         -1.48320       -0.31480       -0.40280
C         -2.05850       -1.09580       -1.63250
C         -0.98980       -2.20350       -1.39820
C         -1.54650       -1.81040        0.00560
O         -1.11420       -2.23380        1.25580
C         -2.97270       -1.85630       -0.62310
H          0.25250       -0.30020        1.37560
H         -0.24440        1.40790       -0.80140
H          0.61180       -0.11980       -0.99890
H         -2.22420        0.30270        0.11660
H         -2.36350       -0.68020       -2.58960
H         -1.25230       -3.20270       -1.75780
H          0.05010       -1.96700       -1.62280
H         -1.12440       -3.19660        1.28600
H         -3.74760       -1.27080       -0.12250
H         -3.34050       -2.83360       -0.94810
