15
gdb 5399	5.32125	1.56661	1.2197	3.1499	70.4	-0.2447	-0.0071	0.2376	950.1121	0.121382	-362.715048	-362.708343	-362.707399	-362.745988	25.165
C         -0.05830        1.40160        0.08740
O          0.00570       -0.01260       -0.00480
C          0.61870       -0.55660       -1.07910
C          1.20450        0.16240       -2.12280
C          1.79800       -0.55560       -3.16030
N          1.84980       -1.88490       -3.23330
C          1.28120       -2.55410       -2.22060
C          0.66230       -1.95390       -1.13670
H          0.94290        1.84760        0.12730
H         -0.61200        1.83460       -0.75450
H         -0.58690        1.61910        1.01640
H          1.20940        1.24390       -2.14630
H          2.25950       -0.01180       -3.98210
H          1.32410       -3.63920       -2.28130
H          0.21570       -2.53760       -0.34060
