10
gdb 23821	4.03312	2.0222	1.34688	0.1064	53.06	-0.2809	-0.0775	0.2033	788.2409	0.060646	-454.72184	-454.715909	-454.714964	-454.752315	21.441
F          0.01190        0.07680        0.00330
C         -0.08590        1.37880        0.01160
N         -1.21670        1.94630        0.03020
C         -1.19380        3.34850        0.03750
N         -2.21560        4.10700        0.05560
C          0.14630        3.95380        0.02260
N          1.25690        3.32400        0.00400
O          1.14140        1.89800       -0.00220
H         -3.06530        3.53790        0.06410
H          0.23370        5.03590        0.02730
