15
gdb 19926	4.48114	2.17869	1.7778	2.2988	66.49	-0.2358	-0.0054	0.2304	745.7434	0.121247	-362.584115	-362.578293	-362.577349	-362.613834	23.444
C         -0.06970        1.41260        0.08840
O          1.38970        1.45980        0.04240
C          1.44520        0.20870       -0.72770
C          2.17010       -1.05240       -0.29690
N          2.00710       -1.46790        1.10720
C          1.08840       -2.03220        0.08200
C         -0.20460       -1.26620        0.14190
C          0.02340       -0.03780       -0.31950
H         -0.46490        1.62690        1.08610
H         -0.50960        2.10010       -0.64600
H          1.65120        0.43760       -1.78190
H          3.05240       -1.38030       -0.83520
H          2.73450       -2.15080        1.31330
H          1.15300       -3.08830       -0.15760
H         -1.06030       -1.60510        0.71320
