20
gdb 18722	3.06094	2.17014	1.48017	1.2363	74.34	-0.2437	0.0832	0.3269	915.1621	0.17915	-349.00521	-348.99781	-348.996866	-349.036506	29.461
C         -0.08850        1.51710       -0.02160
C          0.05670        0.00150        0.02140
O          0.71950       -0.39480       -1.17450
C          0.85440       -1.80350       -1.26320
C          1.88170       -2.34150       -0.26060
C          1.71790       -1.69130        1.11230
C          2.28990       -0.31260        1.35000
C          0.79880       -0.49420        1.25240
H          0.89460        1.99630       -0.02220
H         -0.62390        1.82160       -0.92510
H         -0.64530        1.87160        0.85130
H         -0.95070       -0.45440        0.02510
H         -0.12600       -2.27810       -1.08990
H          1.15480       -2.02280       -2.29220
H          1.76120       -3.42770       -0.18040
H          2.89420       -2.16570       -0.64220
H          1.75250       -2.37190        1.95690
H          2.72320       -0.08690        2.31810
H          2.78820        0.15820        0.50830
H          0.22830       -0.41420        2.17360
