22
gdb 8000	3.08943	1.58953	1.15887	0.3106	85.04	-0.2244	0.0337	0.2581	1133.7956	0.199929	-313.102562	-313.093549	-313.092605	-313.135703	34.209
C         -0.12250        1.58380       -0.00380
C          0.00810        0.05660        0.01620
C          0.81640       -0.52290       -1.17270
C          1.59340       -1.74250       -0.61710
C          2.96510       -1.94540       -1.27150
C          1.62190       -1.46430        0.88060
C          2.47240       -2.26050        1.82130
C          0.76110       -0.49730        1.20460
H          0.86480        2.05890        0.01470
H         -0.64370        1.92350       -0.90550
H         -0.68590        1.94700        0.86260
H         -1.01020       -0.36440        0.01170
H          0.19100       -0.77240       -2.03500
H          1.53990        0.23180       -1.50750
H          1.00930       -2.66260       -0.78240
H          3.60880       -1.07300       -1.11000
H          3.48130       -2.82420       -0.87160
H          2.86150       -2.08790       -2.35250
H          3.54000       -2.15160        1.59410
H          2.31590       -1.95450        2.85930
H          2.24880       -3.33330        1.74720
H          0.57170       -0.15630        2.21870
