14
gdb 7869	3.93492	1.80376	1.24639	5.0989	68.75	-0.2291	-0.0742	0.1549	922.0186	0.107672	-378.774219	-378.766723	-378.765778	-378.806104	27.182
C         -0.01620        1.48740        0.07440
C         -0.00090        0.00280       -0.04150
C         -0.03920       -0.76720       -1.16590
C         -0.00240       -2.15980       -0.75740
O         -0.01530       -3.19960       -1.38330
C          0.06410       -2.11560        0.78640
N          0.11330       -3.07140        1.61400
N          0.05950       -0.76580        1.10910
H          0.88460        1.84500        0.58690
H         -0.06540        1.95310       -0.91040
H         -0.87880        1.82080        0.66340
H         -0.08830       -0.40250       -2.17950
H          0.10210       -3.94520        1.07810
H          0.09580       -0.40930        2.04880
