14
gdb 18340	3.51988	2.32207	1.61762	5.1621	56.5	-0.2537	-0.0098	0.244	769.777	0.109015	-419.689197	-419.682891	-419.681946	-419.720172	23.052
O          0.00860        0.03500        0.07080
C          0.02500        1.22790        0.12290
O         -1.06640        1.96530        0.47650
C         -0.85690        3.37560        0.29180
C          0.64840        3.58340        0.09100
C          1.53690        3.58020        1.35380
O          2.03660        2.25420        1.05660
C          1.20980        2.16910       -0.12320
H         -1.43200        3.69450       -0.58400
H         -1.24930        3.89180        1.17260
H          0.87810        4.35000       -0.64720
H          2.34560        4.31870        1.36300
H          1.00200        3.61600        2.31080
H          1.77350        1.89860       -1.01890
