15
gdb 16637	3.24887	2.34023	1.58969	3.3638	60.42	-0.2447	0.011	0.2557	792.5521	0.120859	-399.822635	-399.81596	-399.815016	-399.853422	26.029
O          0.07990        1.39900        0.20180
C         -0.02650        0.00020        0.06830
C         -1.44500       -0.51550       -0.05230
C         -2.26280       -0.10360       -1.25680
C         -1.48510       -1.39630       -1.28070
N         -0.17000       -1.34500       -1.86790
C          0.64350       -0.43430       -1.25380
O          1.68250        0.03230       -1.67190
H          0.92580        1.63110       -0.20900
H          0.48080       -0.51280        0.90200
H         -1.96830       -0.81490        0.84640
H         -3.34080       -0.16130       -1.15450
H         -1.90390        0.71870       -1.86630
H         -1.97890       -2.36030       -1.28840
H         -0.00950       -1.56830       -2.83970
