17
gdb 10496	3.02164	1.29129	1.0166	2.4142	74.19	-0.2337	0.0398	0.2735	1197.6614	0.140963	-363.806646	-363.797465	-363.796521	-363.841831	31.87
C         -0.05730        1.53510        0.13080
C          0.01800        0.08180        0.10850
C          0.08250       -1.12140        0.08710
C          0.17800       -2.55730        0.04180
C          1.42720       -3.14330       -0.60280
O          1.42840       -2.94880       -2.00030
C         -0.56890       -3.35770        1.05820
N         -1.04080       -3.33290       -0.33250
H          0.80950        1.98030       -0.36960
H         -0.95560        1.89460       -0.38350
H         -0.08420        1.92070        1.15600
H          2.32290       -2.65010       -0.21390
H          1.48170       -4.21170       -0.34340
H          0.59770       -3.32270       -2.31860
H         -0.16150       -4.30990        1.38760
H         -1.13050       -2.81280        1.81070
H         -1.82660       -2.69270       -0.41350
