16
gdb 10449	3.30731	1.50751	1.2226	2.5204	70.75	-0.2504	-0.0257	0.2247	1007.6601	0.127812	-346.569588	-346.561159	-346.560215	-346.602859	30.47
O         -0.42100        0.58070       -1.09360
C         -0.05820        1.11080       -0.07020
C          1.20830        1.88430        0.07010
C          1.47810        2.48970        1.44410
C          1.63710        1.48470        2.49210
C          1.75720        0.63950        3.33810
C          2.37570        1.39540       -0.77580
C          1.65780        2.63880       -1.17590
H         -0.67310        1.05100        0.85440
H          2.38040        3.11050        1.39160
H          0.66080        3.17220        1.71480
H          1.86710       -0.10160        4.09060
H          3.36320        1.47680       -0.33490
H          2.19430        0.49990       -1.35870
H          0.98940        2.58330       -2.02730
H          2.14090        3.59740       -1.02010
