16
gdb 4171	3.59558	1.64351	1.24841	1.0482	70.13	-0.2315	-0.0056	0.226	967.0609	0.130342	-379.839441	-379.831798	-379.830854	-379.871542	28.55
O         -0.10870        1.28180        0.22840
N         -0.02710       -0.11730        0.33250
C         -1.11630       -0.67040       -0.00370
C         -2.50830       -0.24030       -0.43320
C         -2.95380       -1.73880       -0.30860
C         -1.49310       -2.11480        0.00460
C         -0.65870       -3.25300       -0.45980
N         -1.05020       -3.13560        0.95180
H          0.76560        1.56010        0.52130
H         -2.99530        0.46750        0.24210
H         -2.54710        0.16940       -1.44630
H         -3.62870       -1.92930        0.52820
H         -3.37120       -2.18190       -1.21480
H         -1.12830       -4.07360       -0.99640
H          0.36750       -3.03680       -0.74500
H         -0.27640       -2.76350        1.49950
