18
gdb 20291	5.15403	1.45694	1.3723	2.0851	71.03	-0.2326	0.081	0.3136	952.5112	0.154502	-347.710107	-347.703237	-347.702293	-347.741494	27.027
C          0.34850        1.56520        0.28310
C          1.15240        0.50650       -0.42430
C         -0.26980        0.21680       -0.00170
C         -0.63190       -0.70120        1.14090
C         -0.97270       -2.20880        0.94730
C          0.51540       -2.54000        0.69670
C          0.39580       -1.58580        1.91130
O         -0.73940       -2.40320        2.39800
H          0.61000        1.78810        1.31280
H          0.00270        2.42310       -0.28260
H          1.35830        0.63120       -1.48190
H          1.95920        0.03630        0.12750
H         -1.00050        0.21230       -0.80760
H         -1.34330       -0.23430        1.82870
H         -1.86760       -2.66240        0.51870
H          0.80430       -3.56110        0.94830
H          0.98380       -2.17170       -0.21630
H          1.15030       -1.29650        2.64440
