15
gdb 21116	5.10389	1.58599	1.21924	3.4065	76.	-0.1998	-0.0328	0.1669	954.067	0.120967	-358.842925	-358.835792	-358.834848	-358.874311	26.473
C         -0.03940        1.44550       -0.02500
N         -0.01420       -0.00660       -0.03270
C          0.56790       -0.62160        0.93830
C          0.61730       -2.07310        0.97250
C          1.22940       -2.70560        1.99490
N          1.80990       -1.99090        3.00940
N          1.81860       -0.64870        3.06890
C          1.23760       -0.01000        2.10000
H          0.96680        1.89300       -0.05100
H         -0.57310        1.79580       -0.91290
H         -0.55740        1.86260        0.85320
H          0.15570       -2.62840        0.16630
H          1.30390       -3.78290        2.08500
H          2.27120       -2.44400        3.77950
H          1.27330        1.06910        2.19580
