19
gdb 15343	5.90927	0.89494	0.84639	4.2759	76.48	-0.2888	0.0383	0.3271	1380.348	0.165168	-327.936569	-327.927677	-327.926733	-327.970753	31.858
C         -0.04540        1.51310       -0.46330
C          0.00270        0.12510        0.18720
C         -1.36220       -0.53400        0.23350
C         -1.88050       -1.34870       -0.92870
C         -1.57360       -2.02340        0.38540
C         -0.40910       -2.99630        0.51010
C         -0.78240       -4.35570        0.11310
N         -1.09010       -5.42540       -0.19710
H          0.94640        1.97450       -0.48500
H         -0.41370        1.45160       -1.49250
H         -0.71370        2.18330        0.08810
H          0.70970       -0.50350       -0.36700
H          0.40370        0.21350        1.20560
H         -2.10870        0.06990        0.74530
H         -2.91600       -1.25000       -1.23370
H         -1.19380       -1.53020       -1.75080
H         -2.43200       -2.31750        0.98180
H          0.43520       -2.68140       -0.11090
H         -0.04160       -3.03050        1.54310
