20
gdb 9676	3.48011	1.23186	1.06916	2.1196	71.46	-0.2587	0.0797	0.3384	1192.0312	0.174696	-386.12603	-386.116394	-386.11545	-386.160854	34.62
C          0.52260        1.30480        0.35810
C         -0.30270        0.15240       -0.23110
C          0.38900       -0.53340       -1.39980
C          0.51450        0.29680       -2.66340
O          1.58600       -1.26390       -1.06090
C          0.44770       -2.00280       -1.54150
C         -0.10390       -3.03230       -0.58640
O          0.78380       -4.13510       -0.48110
H          1.50860        0.94640        0.66800
H          0.66840        2.11690       -0.36030
H          0.02180        1.72670        1.23420
H         -0.50480       -0.57450        0.55890
H         -1.27700        0.52410       -0.57280
H          1.06140        1.22480       -2.47180
H          1.05320       -0.25760       -3.43520
H         -0.47500        0.56310       -3.05040
H          0.58400       -2.39420       -2.55250
H         -0.30300       -2.59050        0.39840
H         -1.04700       -3.43370       -0.97360
H          1.63610       -3.77530       -0.20980
