16
gdb 12471	3.59285	1.91441	1.30955	5.9222	69.52	-0.2079	-0.004	0.2038	903.7191	0.134049	-379.961889	-379.954628	-379.953684	-379.993426	27.347
O         -0.01170       -0.17550       -0.00720
C         -0.02690        1.04860       -0.03200
N         -1.22380        1.71710        0.15490
C         -1.50970        3.09930       -0.15750
C         -0.67320        4.08840        0.66530
N          0.68360        4.19780        0.16990
C          1.48570        3.13770       -0.13330
C          1.20740        1.81810       -0.23910
H         -2.00330        1.08010        0.21920
H         -1.37470        3.32700       -1.22490
H         -2.56310        3.27100        0.08020
H         -1.12520        5.08330        0.60080
H         -0.69960        3.77060        1.71780
H          1.14740        5.07580        0.32520
H          2.50830        3.44480       -0.33870
H          2.03980        1.17380       -0.49240
