16
gdb 8639	2.44928	1.79972	1.40973	4.3215	70.89	-0.2463	0.0043	0.2506	968.2157	0.12779	-342.74176	-342.732545	-342.7316	-342.775134	33.168
C         -0.04840        1.47630        0.12250
N         -0.03690        0.02690       -0.05130
C          0.70610       -0.49000       -1.21160
C          2.18790       -0.02680       -1.31600
C          0.66770       -1.95890       -1.15420
C          0.68290       -3.15610       -1.07360
C         -0.00280       -0.04280       -2.43950
N         -0.52230        0.33640       -3.39860
H          0.93630        1.93570        0.30060
H         -0.48800        1.94360       -0.76400
H         -0.69190        1.71240        0.97400
H          0.30790       -0.44280        0.77810
H          2.72300       -0.34540       -0.41760
H          2.66730       -0.47510       -2.18890
H          2.24550        1.05970       -1.40620
H          0.67750       -4.21690       -1.01460
