16
gdb 7811	3.46296	1.7202	1.20612	3.4681	61.03	-0.2603	0.0092	0.2695	954.5165	0.131346	-420.917961	-420.910518	-420.909574	-420.949865	27.679
O         -0.08850        1.46550       -0.02140
C         -0.02550        0.05120        0.05140
C         -1.43990       -0.49340       -0.06150
C         -1.39990       -2.01190        0.02430
O         -0.50530       -2.63170       -0.91660
C          0.65200       -2.04480       -1.30940
O          1.47600       -2.70070       -1.88450
C          0.80900       -0.54380       -1.08550
H          0.80740        1.81320        0.04110
H          0.39760       -0.26310        1.02060
H         -2.07040       -0.10170        0.74260
H         -1.87520       -0.16980       -1.01400
H         -1.09780       -2.33010        1.03070
H         -2.37910       -2.44900       -0.18300
H          0.49340       -0.05950       -2.01900
H          1.87840       -0.34670       -0.97080
