16
gdb 15627	3.31646	1.69602	1.14585	2.1614	68.22	-0.2366	-0.0369	0.1997	1007.2075	0.130416	-383.77638	-383.768467	-383.767523	-383.809197	28.3
O          0.02230        1.42920        0.00700
C          0.00620        0.01270        0.00200
C         -1.40660       -0.46560        0.01230
C         -2.53480        0.25560        0.02380
C         -3.78420       -0.59010        0.03170
C         -3.25940       -2.03960        0.02320
C         -1.72950       -1.91230        0.01090
O         -0.93080       -2.82310        0.00170
H          0.93940        1.71690        0.00020
H          0.51510       -0.40160       -0.88380
H          0.53020       -0.40810        0.87580
H         -2.56460        1.33880        0.02720
H         -4.40010       -0.37080        0.91240
H         -4.41450       -0.36580       -0.83760
H         -3.56780       -2.61390        0.90180
H         -3.58240       -2.60910       -0.85320
