17
gdb 18929	3.61298	2.44289	1.94978	1.2001	66.42	-0.2278	0.0692	0.297	746.6072	0.144624	-363.798613	-363.792539	-363.791594	-363.828467	25.115
C         -0.03370        1.53210       -0.00480
C          0.08920        0.01320        0.01440
C          1.04410       -0.61870       -1.02350
N          2.33710        0.07280       -0.67130
C          2.29430       -0.79870        0.53090
C          1.47920       -1.90300       -0.15190
O          0.58780       -2.05390        0.95440
C          0.85830       -0.63590        1.19070
H          0.94720        2.00870        0.02630
H         -0.54440        1.86820       -0.91370
H         -0.62290        1.87880        0.85120
H         -0.89710       -0.45770       -0.02690
H          0.75440       -0.65270       -2.07260
H          3.07200       -0.29170       -1.27750
H          3.17370       -0.92410        1.16030
H          1.83270       -2.82250       -0.61900
H          0.68260       -0.31490        2.21620
