19
gdb 15251	2.54675	1.7752	1.40818	1.5051	73.7	-0.229	-0.0342	0.1948	1000.4869	0.16362	-365.042698	-365.033663	-365.032719	-365.076276	32.383
C          0.43630       -0.26420       -1.76340
C          0.17130       -0.54880       -0.28030
C         -1.28990       -0.85010       -0.01910
C         -1.86660       -2.26480       -0.01610
C         -0.99440       -3.43790       -0.26170
O          0.13000       -3.61130        0.15860
N         -1.80470       -1.42480        1.19380
C         -0.92410       -1.77270        2.30740
H          1.48140        0.01390       -1.92620
H          0.22560       -1.14570       -2.37770
H         -0.18890        0.55640       -2.13250
H          0.79880       -1.37590        0.05600
H          0.44610        0.33070        0.31710
H         -1.96550       -0.11000       -0.45310
H         -2.87580       -2.40000       -0.40150
H         -1.47700       -4.20920       -0.90360
H          0.01000       -2.26540        2.02430
H         -0.70050       -0.85180        2.85480
H         -1.47470       -2.43770        2.97950
