18
gdb 10741	2.94731	1.65818	1.40612	4.5297	71.61	-0.2643	0.0309	0.2952	972.1078	0.153337	-343.978596	-343.969894	-343.96895	-344.011443	32.662
C          0.12940        1.46840        0.03690
C         -0.01780       -0.06660        0.04160
N          0.50840       -0.56620        1.31550
C         -1.45910       -0.40730        0.00820
N         -2.58030       -0.67990       -0.05160
C          0.61520       -0.64690       -1.23900
C          2.08690       -0.95540       -1.32150
C          1.07340       -2.07430       -1.33950
H          1.19330        1.72540        0.04440
H         -0.32100        1.90100       -0.85940
H         -0.34650        1.89750        0.92060
H          0.44040       -1.57700        1.37250
H          1.48590       -0.31010        1.40970
H          0.16870       -0.23450       -2.13950
H          2.61060       -0.70420       -2.23660
H          2.68910       -0.84970       -0.42500
H          1.01220       -2.70070       -0.45560
H          0.89070       -2.60440       -2.26690
