20
gdb 18285	3.1853	1.92348	1.65472	0.2494	79.75	-0.2256	0.0242	0.2498	903.3841	0.179534	-311.874681	-311.867286	-311.866342	-311.905997	29.447
C         -0.12630        1.58010        0.04610
C         -0.00020        0.07460       -0.00840
C          0.67550       -0.66090       -1.15150
C          1.38090        0.08810       -2.28190
C          2.91560        0.09760       -2.12830
C          3.34370        0.41650       -0.71520
C          2.60750        0.08400        0.34720
C          1.32160       -0.64620        0.21730
H          0.80560        2.07900       -0.23140
H         -0.91600        1.93850       -0.62440
H         -0.38140        1.90720        1.06020
H         -0.86140       -0.44540        0.40490
H          0.20530       -1.59390       -1.44660
H          1.10890       -0.36110       -3.24280
H          1.03190        1.12540       -2.32550
H          3.32690       -0.88090       -2.41780
H          3.35320        0.81970       -2.82710
H          4.29670        0.92180       -0.57930
H          2.95240        0.32610        1.35020
H          1.25800       -1.55690        0.80890
