18
gdb 11288	3.74922	1.44677	1.30627	3.1628	71.48	-0.2391	0.0311	0.2702	1007.2874	0.155802	-344.006512	-343.998463	-343.997519	-344.039543	29.45
C         -0.20460        1.44830        0.03830
C          0.09540       -0.04350        0.16640
C          0.71550       -0.67920       -1.10470
N          1.77620       -1.58850       -0.62330
C          1.64040       -1.76970        0.82140
C          1.10870       -0.39730        1.27160
C          0.71010       -2.86060        1.19440
N         -0.01150       -3.73050        1.44080
H          0.70850        2.01420       -0.17870
H         -0.91690        1.64090       -0.77060
H         -0.63710        1.84680        0.96170
H         -0.83870       -0.57130        0.39200
H         -0.04960       -1.19810       -1.69540
H          1.16210        0.08730       -1.75120
H          1.81190       -2.46470       -1.12750
H          2.61200       -2.00150        1.27170
H          1.94610        0.30820        1.26940
H          0.67200       -0.41640        2.27190
