15
gdb 20246	4.13095	3.03493	2.47654	2.0777	68.87	-0.2074	-0.0316	0.1758	618.6837	0.121361	-325.406725	-325.401739	-325.400794	-325.435317	21.808
C         -0.20660        1.31730        0.10070
C          1.38190        1.25490        0.05830
C          2.17970        0.09280        0.73590
C          1.54680       -1.28760        0.50250
C          0.10260       -1.09190        0.29890
C         -0.04010       -0.05870       -0.56370
C          1.34150        0.28800       -1.14140
N          2.36550       -0.64970       -0.55480
H         -0.72250        1.34180        1.06220
H         -0.54620        2.14440       -0.53260
H          1.93250        2.19680        0.01870
H          2.99980        0.22150        1.43340
H          2.00350       -2.14190        0.99210
H         -0.59750       -1.30530        1.10060
H          1.46740        0.56970       -2.18440
