21
gdb 19150	3.66041	1.52469	1.26892	0.9144	78.47	-0.2182	0.0887	0.3069	1056.8758	0.188123	-329.079731	-329.071159	-329.070215	-329.112824	32.857
C          0.15600        1.35350        0.85870
C         -0.16490       -0.10660        0.53240
C         -1.59540       -0.43460        0.11800
C         -2.76410        0.34340        0.68800
C         -2.37850        0.48450       -0.77190
N         -1.68070       -1.85930       -0.15670
C         -2.04390       -2.75500        0.93720
C         -2.95980       -2.54680       -0.21890
H          1.21730        1.45440        1.10550
H         -0.04420        2.01980        0.01350
H         -0.41240        1.71950        1.71930
H          0.49090       -0.45630       -0.27380
H          0.07790       -0.72760        1.40510
H         -3.68780       -0.17460        0.92200
H         -2.55730        1.17360        1.35340
H         -1.92900        1.41410       -1.10230
H         -3.02900        0.02150       -1.50660
H         -1.45670       -3.66470        1.02660
H         -2.34360       -2.30420        1.88190
H         -3.87810       -1.99520       -0.03110
H         -3.04270       -3.29640       -1.00150
