18
gdb 17259	3.08532	2.14847	1.78103	1.7315	72.34	-0.2521	0.0981	0.3501	837.1108	0.153721	-347.734948	-347.727796	-347.726852	-347.765843	28.394
C         -0.02180        1.48470        0.02390
C          0.00640       -0.01840        0.02350
C          0.57040       -0.97610       -1.08650
C          0.01740       -1.93620        0.01380
C          0.67570       -0.98430        1.05870
C         -1.18630       -0.99130        0.08090
C         -2.50050       -0.99810        0.70230
O         -2.32650       -0.98480       -0.74050
H          0.98630        1.90060       -0.07480
H         -0.62570        1.85900       -0.80950
H         -0.45410        1.87070        0.95380
H          0.04910       -0.97420       -2.04590
H          1.65680       -0.96870       -1.21160
H          0.02030       -3.02510        0.01110
H          1.76850       -0.97920        1.06680
H          0.26370       -0.99040        2.07160
H         -2.91580       -1.92130        1.10420
H         -2.92040       -0.08380        1.11980
