18
gdb 17955	2.60734	2.50676	1.43651	0.1969	81.13	-0.213	-0.0278	0.1852	899.4882	0.156361	-310.667346	-310.660186	-310.659242	-310.699001	27.969
C         -0.04740        1.49130        0.18120
C          1.32820        2.08500        0.00440
C          1.85910        2.37880       -1.18220
C          1.14980        2.15370       -2.49460
C          1.30700        0.72010       -2.96900
C          0.98600       -0.42490       -2.34100
C          0.40240       -0.74770       -1.03710
C         -0.02510       -0.01680        0.00770
H         -0.42800        1.72370        1.18000
H         -0.75900        1.93460       -0.52450
H          1.92900        2.20140        0.90320
H          2.88640        2.73120       -1.23650
H          0.08560        2.40180       -2.41220
H          1.55770        2.82250       -3.25810
H          1.75360        0.60880       -3.95490
H          1.20640       -1.32410       -2.91440
H          0.30380       -1.82320       -0.89810
H         -0.40020       -0.58270        0.85780
