16
gdb 11710	5.55057	1.4222	1.28112	1.877	73.14	-0.2292	0.0198	0.249	973.2417	0.128606	-346.530934	-346.523296	-346.522351	-346.562475	29.371
C         -0.08970        1.52470       -0.02130
C          0.12520        0.02870        0.06200
O          1.20460       -0.45380       -0.79820
C          1.77340       -1.19260        0.29370
C          2.23770       -0.24170        1.36340
C          0.77520       -0.60840        1.29030
C          2.25990       -2.50910        0.07600
C          2.68110       -3.62040       -0.11130
H          0.79790        2.07710        0.29780
H         -0.32230        1.81420       -1.05090
H         -0.93200        1.81970        0.61350
H         -0.79540       -0.50630       -0.20440
H          2.77390       -0.69800        2.18870
H          2.59320        0.73910        1.06210
H          0.25330       -1.10120        2.09890
H          3.05090       -4.60160       -0.27890
