22
gdb 10730	2.78	1.47431	1.34946	1.6884	77.41	-0.2571	0.0846	0.3417	1101.27	0.198166	-350.198522	-350.188821	-350.187877	-350.232806	35.897
C         -0.14020        1.61780        0.00540
C         -0.26480        0.10820       -0.21950
C          0.62030       -0.46630       -1.31860
C          1.09620        0.37440       -2.42940
O          1.96640        0.04240       -1.34220
C          0.54910       -1.97620       -1.55760
C          0.98640       -2.77670       -0.32140
C         -0.83040       -2.42160       -2.06490
H          0.90920        1.90410        0.11330
H         -0.56960        2.19210       -0.82140
H         -0.67120        1.91100        0.91550
H         -0.01470       -0.41000        0.71420
H         -1.30760       -0.15100       -0.43840
H          1.34430       -0.09150       -3.38310
H          0.81550        1.42320       -2.49410
H          1.28150       -2.17800       -2.34910
H          1.07910       -3.83930       -0.56780
H          1.95670       -2.42710        0.04340
H          0.26230       -2.69400        0.49610
H         -1.14040       -1.84520       -2.94300
H         -0.81070       -3.47900       -2.34730
H         -1.60170       -2.30400       -1.29630
