21
gdb 2721	12.88146	0.71947	0.69907	1.3734	72.02	-0.2613	0.0815	0.3428	1637.1265	0.193562	-312.126342	-312.116795	-312.115851	-312.160938	32.999
C          0.01250        1.57800        0.01040
C          0.00010        0.04700        0.00230
C         -1.41330       -0.54490        0.01260
C         -1.43490       -2.07710        0.00460
C         -2.85070       -2.66090        0.01500
C         -2.86810       -4.18330        0.00690
O         -4.22320       -4.60930        0.01760
H          1.03410        1.97090        0.00280
H         -0.50640        1.98250       -0.86590
H         -0.48950        1.97300        0.90080
H          0.53910       -0.31960       -0.88150
H          0.55580       -0.32900        0.87180
H         -1.95380       -0.17880        0.89670
H         -1.97060       -0.16940       -0.85700
H         -0.89370       -2.44150       -0.87990
H         -0.87700       -2.45090        0.87470
H         -3.39640       -2.31260        0.90070
H         -3.41310       -2.30320       -0.85640
H         -2.34070       -4.55630       -0.88690
H         -2.32380       -4.56590        0.88650
H         -4.23590       -5.57060        0.01250
