20
gdb 13250	7.26479	0.77903	0.74161	2.8629	76.88	-0.247	-0.0181	0.2288	1522.5524	0.176288	-349.007642	-348.998889	-348.997945	-349.042204	31.103
O         -0.61150        0.78610        0.86510
C          0.03410        1.03330       -0.12060
C          1.33130        1.80580       -0.14290
C          1.25140        3.03630       -1.06620
C          2.58460        3.75980       -1.20400
C          3.75310        3.06710       -1.96560
C          4.11680        4.44610       -2.57950
C          2.69520        4.94460       -2.20540
H         -0.31120        0.69670       -1.12800
H          1.58980        2.08730        0.88220
H          2.11270        1.12950       -0.51950
H          0.90650        2.72340       -2.06170
H          0.49330        3.73050       -0.68050
H          2.93130        4.08060       -0.21410
H          4.51640        2.54970       -1.37930
H          3.37310        2.37690       -2.72730
H          4.89030        4.95580       -1.99800
H          4.40370        4.47200       -3.63310
H          1.99430        4.82400       -3.03850
H          2.59160        5.95810       -1.81030
