22
gdb 15828	4.60874	0.94678	0.86327	1.6917	78.7	-0.261	0.0867	0.3477	1422.1234	0.198885	-350.19175	-350.182102	-350.181158	-350.226672	34.766
C          0.01440        1.61910       -0.13470
C         -0.02320        0.09150       -0.02910
C          0.63600       -0.59860       -1.22900
C          0.71170       -2.13910       -1.14270
C         -0.67150       -2.80060       -1.18670
C          1.63870       -2.64060       -2.23880
C          1.50130       -3.91390       -2.95740
O          1.12520       -2.68040       -3.57540
H          1.04490        1.98730       -0.19130
H         -0.50850        1.96600       -1.03280
H         -0.46120        2.09140        0.73060
H          0.48300       -0.22460        0.89310
H         -1.06520       -0.23480        0.06880
H          0.10890       -0.32310       -2.15210
H          1.65640       -0.20530       -1.33700
H          1.19600       -2.39620       -0.18830
H         -1.34490       -2.35840       -0.44880
H         -1.11990       -2.67750       -2.17720
H         -0.61260       -3.87100       -0.96810
H          2.64670       -2.22180       -2.18280
H          2.38800       -4.39210       -3.37250
H          0.67920       -4.58870       -2.73070
