19
gdb 6207	3.69455	1.54896	1.45172	0.997	72.75	-0.2398	0.0327	0.2725	989.0455	0.164472	-365.102735	-365.094023	-365.093079	-365.136103	31.957
C          0.01000        1.47260       -0.01080
C         -0.05450       -0.01640       -0.04380
N         -1.06740       -0.73740        0.21330
C         -0.65910       -2.15010        0.05080
C         -0.83750       -2.88490        1.38530
C         -1.51340       -2.80090       -1.04420
C          0.84240       -2.04310       -0.36330
O          1.11460       -0.62850       -0.39020
H          0.77270        1.80300        0.70140
H          0.29420        1.86130       -0.99380
H         -0.96010        1.87620        0.27680
H         -1.88520       -2.85680        1.69690
H         -0.52960       -3.93300        1.29810
H         -0.23800       -2.41420        2.17040
H         -1.39670       -2.27020       -1.99400
H         -1.22350       -3.84670       -1.19580
H         -2.57110       -2.77160       -0.76810
H          1.52170       -2.51110        0.35610
H          1.04470       -2.45200       -1.35820
