17
gdb 12390	2.94297	2.20251	1.36168	3.3869	65.22	-0.2345	0.0262	0.2607	905.95	0.143728	-401.039882	-401.032285	-401.031341	-401.071859	28.382
C         -0.00550        1.52760       -0.05100
C          0.05630        0.00820       -0.00210
O          0.68340       -0.44740       -1.19580
C          0.95140       -1.83240       -1.16410
C          2.01520       -2.12830       -0.11440
N          1.60520       -1.52980        1.14600
C          0.74950       -0.47610        1.28320
O          0.50270        0.02830        2.36370
H          1.00150        1.94400       -0.14490
H         -0.59710        1.85000       -0.91110
H         -0.45600        1.90230        0.86870
H         -0.96970       -0.39900        0.04610
H          0.03410       -2.40290       -0.94410
H          1.30550       -2.11670       -2.15850
H          2.13010       -3.21120        0.01270
H          2.98160       -1.72430       -0.44760
H          2.07590       -1.79760        1.99860
