16
gdb 6599	5.49273	1.33977	1.30551	3.4648	66.87	-0.2512	-0.0279	0.2233	951.3944	0.129772	-383.699312	-383.691976	-383.691032	-383.730977	27.855
O         -0.06450        1.32850        0.00630
C          0.02020       -0.04630        0.00180
C          0.66110       -0.98260        1.07720
C          0.00700       -1.90890       -0.00340
C         -1.22480       -0.96430        0.00790
C          0.64580       -0.97630       -1.08800
C          0.02660       -3.39370       -0.00840
O         -0.95620       -4.09240       -0.00680
H          0.82680        1.69470        0.00150
H          1.75300       -0.99780        1.13740
H          0.19320       -0.99430        2.06430
H         -1.82870       -0.96610        0.91730
H         -1.84140       -0.96090       -0.89300
H          0.16400       -0.98250       -2.06840
H          1.73670       -0.99130       -1.16360
H          1.04930       -3.83790       -0.01410
