18
gdb 18880	3.2997	2.69483	2.42661	1.312	68.88	-0.2477	0.0856	0.3332	699.7888	0.158763	-347.814386	-347.809023	-347.808079	-347.843433	23.603
C         -0.03030        1.56600        0.06040
C          1.51510        1.51840       -0.02290
C          2.14990        1.15440        1.34080
C          1.86980       -0.36480        1.39000
C          0.34230       -0.60070        1.37530
C         -0.02960        0.01860        0.00660
C          1.39930        0.07960       -0.65070
O          2.25160       -0.78400        0.07090
H         -0.47470        2.04100        0.94090
H         -0.47350        2.00480       -0.83850
H          2.03790        2.31040       -0.55970
H          3.22960        1.32760        1.33200
H          1.71450        1.70710        2.17840
H          2.43320       -0.93050        2.13230
H          0.13740       -1.67470        1.39100
H         -0.18090       -0.13310        2.21460
H         -0.84700       -0.49070       -0.50470
H          1.51070       -0.05610       -1.72420
