11
gdb 3694	7.25879	2.26305	1.74392	3.0009	48.42	-0.2451	0.0033	0.2484	666.3047	0.079198	-376.622509	-376.616399	-376.615455	-376.65244	21.51
C         -0.01180        1.45770        0.05320
C         -0.02310       -0.02010       -0.04340
N         -0.14940       -0.72880       -1.10990
N         -0.09350       -2.02570       -0.63910
C          0.06700       -2.10110        0.71490
O          0.15580       -3.03090        1.46210
O          0.11220       -0.75290        1.09730
H          0.92940        1.80900        0.48780
H         -0.13030        1.88260       -0.94410
H         -0.82500        1.80880        0.69620
H         -0.16760       -2.80440       -1.26910
