14
gdb 5095	3.37119	2.01294	1.26699	0.5588	60.03	-0.1651	0.059	0.2242	889.7387	0.107183	-415.871388	-415.863026	-415.862081	-415.903602	30.617
N          0.07120        1.42340       -0.11850
C          0.00210        0.01810       -0.03210
C         -1.09880       -0.80320        0.02430
N         -0.64300       -2.12300       -0.02040
C          0.71480       -2.12770       -0.07970
O          1.39710       -3.29910       -0.09300
C          1.15400       -0.82660       -0.10100
O          2.48360       -0.44710       -0.11960
H          0.82150        1.78480        0.46080
H         -0.79410        1.86550        0.16630
H         -2.15150       -0.58060        0.05550
H         -1.20640       -2.94540        0.09550
H          2.33370       -3.06780       -0.09970
H          2.65410        0.01540       -0.94860
