18
gdb 19717	3.38975	2.45563	2.41562	1.6248	69.26	-0.2412	0.0872	0.3284	713.6646	0.157876	-347.789161	-347.783565	-347.78262	-347.81838	24.544
C         -0.05630        1.48900        0.12230
C          1.29380        0.82110       -0.02080
C          0.01790       -0.00890        0.02810
C         -0.00640       -0.63910       -1.38130
C          1.48060       -0.98190       -1.58230
C          1.88560        0.50940       -1.41750
C          0.99640        1.10590       -2.51380
O         -0.23830        0.36910       -2.38120
H         -0.27760        1.90390        1.10080
H         -0.49820        2.03480       -0.70120
H          1.97980        0.86010        0.81800
H         -0.24970       -0.62720        0.87830
H         -0.74080       -1.43200       -1.52380
H          1.88320       -1.62180       -0.79380
H          1.70550       -1.40680       -2.56570
H          2.94390        0.74970       -1.52230
H          0.80130        2.17620       -2.38790
H          1.41730        0.94470       -3.51540
