18
gdb 11505	4.4633	1.06656	0.95158	1.6699	74.24	-0.2592	0.0548	0.314	1240.6929	0.151443	-347.749648	-347.740713	-347.739769	-347.783747	32.239
C         -0.00360        1.49830       -0.25530
C          0.02990       -0.00010        0.10810
C          0.68520       -0.27280        1.48740
C          2.14160        0.12070        1.53820
C          3.15830       -0.73490        2.16290
O          3.03420       -0.66810        0.74170
C         -1.31540       -0.57030        0.07170
C         -2.42770       -1.02700        0.06400
H          1.00800        1.90920       -0.31250
H         -0.48430        1.64610       -1.22530
H         -0.56880        2.06530        0.49120
H          0.64220       -0.52060       -0.64020
H          0.13290        0.26880        2.26550
H          0.59510       -1.34020        1.71090
H          2.35310        1.19000        1.49530
H          4.06340       -0.29120        2.57550
H          2.85740       -1.67940        2.61460
H         -3.40660       -1.43760        0.04300
