9
gdb 92	12.44643	5.23328	3.86599	3.9339	35.4	-0.2788	0.0089	0.2878	336.0792	0.068574	-267.106213	-267.101929	-267.100985	-267.13332	14.483
O          0.04420        0.03930       -0.33070
C         -0.04850        1.17420        0.00410
C         -1.14210        2.23610        0.15340
C          0.02330        3.12360        0.61680
O          0.95660        2.01190        0.42600
H         -1.62570        2.51480       -0.78400
H         -1.90010        1.99550        0.90030
H          0.28370        3.96170       -0.03230
H          0.00780        3.43940        1.66160
