17
gdb 10818	4.95177	1.49649	1.19272	5.452	75.03	-0.209	-0.0256	0.1834	995.7891	0.143798	-363.899792	-363.89227	-363.891326	-363.931566	28.044
C         -0.02920        1.45440       -0.24890
N          0.01430        0.12680        0.33240
C         -1.23830       -0.62530        0.33620
C         -1.14470       -1.84740        1.24830
C          0.09720       -2.70230        0.96020
O          0.10050       -3.90350        1.16740
C          1.25110       -1.93770        0.51880
C          1.16400       -0.60150        0.28460
H          0.95220        1.92670       -0.16560
H         -0.31690        1.43570       -1.31170
H         -0.75420        2.07480        0.28770
H         -2.04380        0.04220        0.65850
H         -1.46970       -0.94530       -0.69480
H         -1.07780       -1.52290        2.29550
H         -2.03770       -2.46910        1.15440
H          2.20790       -2.43890        0.44900
H          2.05270       -0.02440        0.04200
