24
gdb 6614	3.19453	1.43037	1.30715	0.0453	84.73	-0.2806	0.0762	0.3568	1119.089	0.222383	-314.272878	-314.263348	-314.262404	-314.30651	36.673
C          0.16160        1.55870        0.33220
C          0.00910        0.05210        0.05550
C          0.67660       -0.73750        1.19780
C         -1.49030       -0.29810        0.00040
C          0.65910       -0.37250       -1.27670
C          0.28440        0.30850       -2.62670
C          1.75500        0.11090       -3.08250
C          2.15410       -0.07060       -1.59350
H          1.21230        1.85750        0.39900
H         -0.31310        2.16680       -0.44400
H         -0.31230        1.81860        1.28520
H          0.22390       -0.48990        2.16430
H          0.57050       -1.81770        1.04660
H          1.74660       -0.51290        1.26410
H         -1.99650        0.24610       -0.80420
H         -1.64000       -1.36950       -0.17490
H         -1.98940       -0.04120        0.94140
H          0.50080       -1.45350       -1.38680
H         -0.50440       -0.15150       -3.22720
H          0.04740        1.36910       -2.50010
H          1.88110       -0.81540       -3.65060
H          2.22720        0.92410       -3.63890
H          2.48470        0.87500       -1.15340
H          2.89140       -0.83990       -1.35080
