14
gdb 15499	3.03812	2.05818	1.38624	3.1151	64.48	-0.2492	-0.0588	0.1905	863.5156	0.107015	-382.586161	-382.579153	-382.578209	-382.618018	25.253
O         -0.62330        0.82280       -0.60240
C          0.20690        0.98930        0.25300
C          1.40280        1.91910        0.12910
C          1.45470        2.74280       -1.16210
C          1.38730        4.17260       -0.68780
C          1.32970        4.29300        0.64420
C          1.35120        2.96230        1.28440
O          1.32200        2.69180        2.46060
H          0.14810        0.47480        1.23400
H          2.29600        1.30580        0.29880
H          2.36780        2.56320       -1.74100
H          0.61160        2.49650       -1.81710
H          1.38530        5.00210       -1.38690
H          1.27420        5.20760        1.21970
