14
gdb 21248	3.23459	1.99032	1.32039	3.6121	59.75	-0.2088	0.0257	0.2345	891.5611	0.107611	-415.850186	-415.842396	-415.841452	-415.882887	27.479
C          0.25060        1.02240       -0.33230
O         -0.27750        0.19990        0.71760
C         -1.33540       -0.56690        0.35950
C         -1.37850       -1.88960       -0.03330
O         -0.33750       -2.75050       -0.20790
C         -2.74750       -2.16470       -0.22420
N         -3.50280       -1.09580        0.03290
N         -2.62970       -0.13400        0.38180
H          1.11420        1.54180        0.08680
H          0.56200        0.41350       -1.18850
H         -0.49020        1.75730       -0.66810
H          0.44730       -2.34690        0.17980
H         -3.20210       -3.09250       -0.53630
H         -2.96770        0.76110        0.69200
