14
gdb 10247	3.19348	1.75501	1.14894	2.8041	62.34	-0.2596	-0.04	0.2196	977.0863	0.105413	-415.900481	-415.892058	-415.891113	-415.934323	28.546
C          0.05010        1.48790        0.04630
C          0.00770       -0.02730        0.00190
O         -0.05010       -0.68450        1.01490
N          0.03510       -0.67080       -1.26420
C         -0.08600       -2.09220       -1.24260
N          0.29550       -2.81350       -2.20510
C          0.09610        0.06130       -2.47150
O         -0.04160       -0.39110       -3.57100
H          0.97940        1.87980       -0.37790
H         -0.78530        1.94010       -0.49540
H         -0.00610        1.77030        1.09700
H         -0.51610       -2.42710       -0.29960
H          0.10600       -3.79260       -1.98950
H          0.27990        1.13050       -2.28810
