17
gdb 13114	4.05976	1.26394	1.03514	4.3218	65.14	-0.2375	0.0065	0.2441	1144.3342	0.142218	-401.010031	-401.001786	-401.000842	-401.043469	29.023
C          0.03090        1.49100        0.08600
C          0.18620       -0.02520        0.05280
N          0.46860       -0.48590       -1.31180
C          0.61950       -1.92220       -1.41090
C          1.13430       -2.45750       -2.75930
O          2.35300       -2.95230       -2.11420
C          1.97260       -2.45000       -0.89740
O          2.58010       -2.47230        0.12400
H          0.93440        1.97970       -0.28880
H         -0.81300        1.81690       -0.53360
H         -0.15560        1.83650        1.10680
H          1.02500       -0.33430        0.68440
H         -0.71710       -0.50570        0.47280
H         -0.28540       -0.18950       -1.92600
H         -0.22200       -2.50600       -0.99810
H          0.57570       -3.27840       -3.21210
H          1.37370       -1.68420       -3.49160
