15
gdb 20425	6.03317	1.55039	1.31185	2.0918	67.83	-0.2084	0.0289	0.2373	910.5337	0.121616	-358.829403	-358.822737	-358.821793	-358.860703	25.071
C         -0.09170        1.35340       -0.22540
C          1.29700        0.89610        0.05930
N          0.19030       -0.05010        0.09370
C         -0.21570       -0.55200        1.33730
N          0.63820       -0.71660        2.34530
N         -0.10950       -1.28170        3.32130
C         -1.39980       -1.47070        2.95940
C         -1.51640       -1.00910        1.66780
H         -0.58650        1.95110        0.53650
H         -0.41530        1.54170       -1.24480
H          2.00140        0.75230       -0.75460
H          1.73640        1.17920        1.01090
H          0.33170       -1.52280        4.19110
H         -2.11860       -1.91350        3.63110
H         -2.39510       -1.00400        1.04490
