13
gdb 20352	5.37795	2.22614	1.58985	5.0975	65.38	-0.2447	-0.0335	0.2113	739.0266	0.098969	-357.645796	-357.640366	-357.639422	-357.675196	21.301
C         -0.04810        1.54330        0.01080
C          1.44370        1.85600       -0.00180
C          2.15490        0.72240       -0.01480
N          1.25830       -0.36320       -0.01210
N          1.38630       -1.69900       -0.02060
N          0.16470       -2.17290       -0.01180
C         -0.73710       -1.14240        0.00260
C         -0.03990        0.04130        0.00250
H         -0.54390        1.95810        0.89690
H         -0.56070        1.96780       -0.86110
H          1.85110        2.85610       -0.00010
H          3.21830        0.54300       -0.02590
H         -1.79790       -1.33030        0.01170
