18
gdb 16344	3.13583	1.84485	1.44125	2.0771	67.79	-0.2296	0.0769	0.3065	935.4159	0.151746	-384.883885	-384.875602	-384.874658	-384.916516	30.535
C         -0.35340        1.31320       -0.04930
O          0.22980        0.02920        0.11950
C          0.73180       -0.51120       -1.03920
C         -0.13990       -1.06180       -2.15320
C          0.84890       -1.95050       -1.44440
O          2.16100       -1.76920       -1.98150
C          2.19200       -0.38630       -1.50430
C          2.61940        0.60870       -2.56190
H          0.38780        2.05930       -0.36710
H         -1.16540        1.28920       -0.78840
H         -0.75720        1.60730        0.92180
H         -1.17180       -1.20950       -1.84790
H          0.00870       -0.80560       -3.19830
H          0.61790       -2.88210       -0.94270
H          2.84810       -0.33050       -0.62560
H          1.93020        0.61500       -3.41060
H          2.66290        1.61750       -2.13730
H          3.61750        0.35730       -2.93500
