16
gdb 21252	6.94345	1.26713	1.08626	2.7954	68.34	-0.2095	0.0462	0.2557	1082.3854	0.130878	-379.935535	-379.927393	-379.926449	-379.968307	28.944
C          0.00720        1.42930       -0.03670
O         -0.05060        0.01260       -0.00700
C          0.55640       -0.64690       -1.01130
C          0.63830       -2.00840       -1.20780
C          1.38240       -2.14810       -2.40580
C          1.77770       -3.41380       -3.09890
N          1.73400       -0.97060       -2.91320
N          1.21750       -0.05770       -2.04130
H          1.04340        1.78960        0.01310
H         -0.47740        1.83180       -0.93610
H         -0.53290        1.77700        0.84440
H          0.22110       -2.77440       -0.57620
H          0.90000       -4.00250       -3.38770
H          2.34850       -3.17940       -4.00000
H          2.39460       -4.04790       -2.45260
H          1.35780        0.91960       -2.22130
