14
gdb 20459	4.96258	2.0356	1.48017	4.1792	62.39	-0.2335	-0.0025	0.2311	792.3075	0.111847	-374.881039	-374.87496	-374.874016	-374.911497	22.775
C         -0.02880        1.54390        0.19090
N          1.30830        1.95070       -0.33530
C          2.18380        0.75000       -0.52400
C          1.22620       -0.39390       -0.36750
C         -0.00140        0.05750        0.02280
N         -0.72720       -1.06380        0.18990
N          0.02570       -2.16410       -0.10340
N          1.21970       -1.74810       -0.43250
H         -0.13470        1.83040        1.24680
H         -0.83040        2.04890       -0.35930
H          1.17150        2.38780       -1.23710
H          2.67920        0.78990       -1.49940
H          2.97360        0.72900        0.23830
H         -1.68820       -1.19550        0.46040
