11
gdb 21833	6.31335	1.48985	1.2054	4.2393	54.32	-0.2688	-0.0379	0.231	891.0788	0.073503	-430.735863	-430.729491	-430.728546	-430.767106	22.104
O         -0.34330        0.05430        0.00310
C         -0.08620        1.22790        0.00820
N          1.18460        1.77230       -0.00090
C          2.38660        1.09480       -0.01560
N          2.53530       -0.20870       -0.02690
O          3.94070       -0.34290       -0.03920
C          4.44200        0.88560       -0.03380
N          3.55520        1.82910       -0.01920
H         -0.84860        2.03040        0.02010
H          1.27660        2.77750        0.00530
H          5.51750        0.98510       -0.04160
