17
gdb 3259	3.4114	3.29154	1.78693	0.654	72.85	-0.2097	-0.0196	0.1902	731.1849	0.151159	-272.600604	-272.594192	-272.593248	-272.631206	24.671
C         -0.02750        1.50670       -0.05050
C          1.35780        2.16430        0.00690
C          2.09920        2.04280        1.30900
C          2.01160        1.07260        2.23110
C          1.22470       -0.15880        2.23210
C          0.38040       -0.64680        1.31100
C         -0.04210       -0.02660        0.00850
H         -0.64330        1.90080        0.76630
H         -0.51250        1.81600       -0.98380
H          1.98650        1.77190       -0.80730
H          1.24170        3.23230       -0.21890
H          2.79230        2.85570        1.51710
H          2.63840        1.19080        3.11290
H          1.38130       -0.77630        3.11440
H         -0.06600       -1.61710        1.52060
H         -1.06030       -0.37010       -0.21630
H          0.57760       -0.43310       -0.80560
