18
gdb 6229	2.16939	2.10588	1.62258	2.3756	64.52	-0.2263	0.0633	0.2896	917.7734	0.149211	-422.046951	-422.037236	-422.036291	-422.080125	36.103
C         -0.04200        1.54950       -0.05220
C          0.01590        0.04000        0.03560
O         -1.15090       -0.59950       -0.40170
C          1.32400       -0.68900       -0.20980
O          2.44810        0.08060       -0.53200
C          0.70860       -0.65810        1.18970
C          1.37550        0.12690        2.29790
O          0.06670       -1.82540        1.62250
H          0.91330        2.01420        0.19320
H         -0.29120        1.84620       -1.07830
H         -0.81930        1.94350        0.60950
H         -1.23540       -0.42840       -1.34670
H          1.22340       -1.64050       -0.73370
H          3.22160       -0.33140       -0.13240
H          1.94700        0.97430        1.91600
H          0.63410        0.49240        3.01480
H          2.07260       -0.52190        2.84450
H          0.74390       -2.42280        1.95950
