14
gdb 19102	5.17517	2.14686	2.05142	3.1176	63.21	-0.225	-0.0087	0.2163	683.2132	0.108891	-345.339018	-345.333727	-345.332783	-345.36825	21.915
O          0.00320       -0.01460        0.04170
C         -0.01260        1.18030        0.07240
C         -1.09830        2.26950       -0.02430
C         -0.79980        3.25990        1.11900
C         -0.05160        4.24540        0.25610
C          0.74740        3.28090        1.09700
C          1.04000        2.29850       -0.05460
C         -0.05210        3.13640       -0.84570
H         -2.12280        2.07100       -0.32790
H         -1.36490        3.42550        2.02590
H         -0.06670        5.32580        0.22530
H          1.33340        3.46220        1.98750
H          2.06050        2.12770       -0.38730
H         -0.06880        3.23780       -1.92630
