15
gdb 21234	3.38933	2.00083	1.28722	4.7645	63.31	-0.224	0.0132	0.2372	911.31	0.119214	-395.969419	-395.961511	-395.960566	-396.002342	27.577
C          0.15170        0.69350        0.65010
O          0.08570        0.76440       -0.77160
C          0.53930       -0.30090       -1.45470
C          0.76140       -1.64490       -1.21150
C          0.57040       -2.50370       -0.00050
N          1.21450       -2.18990       -2.38400
N          1.27850       -1.28880       -3.31660
N          0.87190       -0.12820       -2.75540
H         -0.50700       -0.08710        1.04330
H          1.17840        0.50950        0.98530
H         -0.18300        1.66560        1.01410
H          0.92850       -3.50750       -0.23980
H          1.12960       -2.14580        0.86970
H         -0.48250       -2.58700        0.29140
H          0.83970        0.72380       -3.29230
