15
gdb 5268	6.87436	1.0405	0.96082	1.2868	62.39	-0.2413	0.0018	0.2431	1160.9667	0.119963	-399.824249	-399.816763	-399.815819	-399.856941	26.475
O          0.11690        1.42890        0.11250
C          0.06220        0.01420        0.16660
C         -1.36320       -0.52560       -0.04630
C         -1.41990       -2.01630        0.00040
C         -1.98380       -2.84220        0.91560
O         -1.75120       -4.13630        0.53400
C         -1.04390       -4.01910       -0.61020
N         -0.81280       -2.80440       -0.98190
H         -0.06440        1.69630       -0.79420
H          0.74110       -0.45160       -0.56150
H          0.41390       -0.26300        1.16580
H         -2.02450       -0.09640        0.71280
H         -1.72540       -0.18330       -1.02480
H         -2.54760       -2.70210        1.82160
H         -0.74910       -4.93700       -1.09440
