16
gdb 5534	3.30484	1.8846	1.25177	2.6789	68.64	-0.193	0.0223	0.2153	964.973	0.131017	-379.950581	-379.942442	-379.941498	-379.983707	28.589
C         -0.12330        1.42530       -0.13590
N          0.49920        0.13080        0.14730
C          0.81410       -0.68750       -0.92120
C          0.67460       -2.01690       -1.19070
C          0.00350       -3.08640       -0.39620
N          1.30660       -2.27950       -2.41000
C          1.75730       -1.14070       -2.80400
O          1.50600       -0.10910       -1.94950
H          0.54090        2.00990       -0.77530
H         -1.10040        1.34300       -0.63530
H         -0.25140        1.96510        0.80510
H          0.01610       -0.38750        0.86780
H         -0.62310       -3.70960       -1.04180
H          0.72490       -3.75030        0.09510
H         -0.63810       -2.66070        0.38280
H          2.28320       -0.89400       -3.71200
