17
gdb 14492	3.55741	2.03286	1.53916	4.0434	72.74	-0.2987	0.0296	0.3282	854.2972	0.143217	-326.691951	-326.684828	-326.683884	-326.722971	27.779
C         -0.15520        1.55510       -0.01200
C          0.01070        0.03140        0.00800
C         -1.30970       -0.56790       -0.20670
N         -2.37180       -0.99250       -0.37920
C          1.20240       -0.66650       -0.75710
C          2.15640       -0.13490        0.35210
C          0.90370       -0.67460        1.10200
C          0.98300       -1.90870        0.15580
H          0.78750        2.08090        0.13950
H         -0.57380        1.87650       -0.97030
H         -0.85010        1.86930        0.77250
H          1.35710       -0.65210       -1.83640
H          3.07060       -0.71410        0.49650
H          2.36850        0.93250        0.39090
H          0.71230       -0.66950        2.17550
H          0.07040       -2.48690        0.00660
H          1.85180       -2.55490        0.29260
