12
gdb 3659	3.6429	3.53815	1.82407	3.9411	53.06	-0.2287	-0.0301	0.1986	652.8042	0.089955	-356.676972	-356.670229	-356.669285	-356.707806	23.379
C          0.10350        1.53600        0.02710
C         -0.02790        0.05910       -0.02970
C         -1.09590       -0.78680        0.05710
N         -2.44990       -0.50710        0.26600
N         -0.60160       -2.06670       -0.03720
N          0.65500       -2.04860       -0.17060
O          1.06880       -0.69630       -0.19370
H          0.93090        1.82680        0.68090
H          0.29600        1.96660       -0.96220
H         -0.82100        1.96850        0.41740
H         -2.87290        0.00270       -0.50070
H         -2.96730       -1.36590        0.41080
