18
gdb 19521	3.66006	1.60755	1.51971	1.7476	71.75	-0.2309	0.0144	0.2454	918.8538	0.155432	-347.792821	-347.785514	-347.78457	-347.824483	28.362
O          0.08860        1.37020        0.28770
C          0.05860        0.03790       -0.21140
C         -1.31480       -0.57670       -0.09730
C         -1.59650       -2.05860       -0.09230
C         -0.47040       -3.05000        0.22030
C         -0.07220       -2.70730        1.64130
C         -0.84150       -1.74460        2.15710
C         -1.84400       -1.24450        1.17370
H         -0.19480        1.33090        1.20710
H          0.34060        0.11460       -1.26750
H          0.81340       -0.58640        0.28460
H         -2.06970        0.01080       -0.61530
H         -2.42700       -2.40660       -0.69550
H         -0.82660       -4.08590        0.14490
H          0.37460       -2.96900       -0.47590
H          0.75800       -3.18820        2.14660
H         -0.75100       -1.34300        3.16060
H         -2.84140       -0.97950        1.50810
