19
gdb 2441	3.77076	3.17461	2.47627	0.0753	69.67	-0.2736	0.0815	0.3551	661.041	0.175932	-273.787799	-273.781987	-273.781043	-273.816951	24.312
C         -0.01190        1.52910       -0.06840
C          1.53670        1.44830        0.01780
C          1.33410        0.12250        0.81200
C         -0.00360       -0.02120        0.02480
C          0.24190       -0.61200       -1.37470
C          1.63820       -0.20930       -1.90840
C          2.10860        1.16910       -1.38320
H         -0.44770        1.99000        0.82280
H         -0.45120        1.98520       -0.96230
H          2.06390        2.26890        0.51130
H          2.08660       -0.66670        0.72490
H          1.15050        0.31990        1.87160
H         -0.84560       -0.50710        0.52450
H          0.16540       -1.70540       -1.35080
H         -0.55090       -0.26140       -2.04780
H          2.36000       -0.96420       -1.57920
H          1.65910       -0.23640       -3.00230
H          1.79240        1.97440       -2.05840
H          3.20450        1.19420       -1.36450
