18
gdb 1248	5.07605	1.40889	1.31261	3.6758	65.32	-0.2497	0.0333	0.283	981.46	0.159125	-327.014214	-327.00557	-327.004626	-327.048002	30.198
C         -0.30260        1.50620        0.08350
C          0.00560        0.00610        0.02060
C          0.80300       -0.45390        1.24780
C         -1.27520       -0.83790       -0.11120
N         -2.03310       -0.57180       -1.32400
C         -3.27610       -0.01940       -1.32800
O         -3.90050        0.31780       -0.34450
H          0.62060        2.09240        0.13420
H         -0.86430        1.83740       -0.79430
H         -0.90210        1.74370        0.96940
H          0.62050       -0.18200       -0.87280
H          0.22970       -0.29260        2.16820
H          1.05170       -1.51920        1.19200
H          1.73950        0.10470        1.33900
H         -1.01720       -1.90420       -0.07400
H         -1.95430       -0.63140        0.72080
H         -1.62160       -0.80740       -2.21340
H         -3.66920        0.09090       -2.35890
