21
gdb 1807	3.49278	1.98158	1.91775	0.0759	73.94	-0.2626	0.0817	0.3443	852.0802	0.193696	-274.985107	-274.976554	-274.97561	-275.017195	32.603
C          0.16880        1.41630        0.26220
C         -0.08920       -0.06330       -0.06070
C         -1.59440       -0.35120       -0.16970
C          0.68380       -0.53230       -1.29730
C          0.34000        0.13360       -2.61870
C          2.12370       -0.93680       -1.08520
C          1.07150       -1.99150       -1.34290
H          1.24050        1.62430        0.34260
H         -0.24360        2.07400       -0.51070
H         -0.30220        1.69450        1.21080
H          0.29560       -0.65330        0.78300
H         -2.06250        0.25050       -0.95630
H         -1.78160       -1.40540       -0.39780
H         -2.10440       -0.11230        0.76940
H          0.52200        1.21340       -2.58880
H          0.95100       -0.27830       -3.42790
H         -0.70980       -0.02110       -2.89040
H          2.84010       -0.72580       -1.87250
H          2.53490       -0.86470       -0.08320
H          0.77680       -2.62720       -0.51380
H          1.07610       -2.49420       -2.30460
