16
gdb 6071	5.22198	1.00615	0.85247	3.0559	62.96	-0.2382	0.0153	0.2535	1291.2691	0.128635	-417.133225	-417.123498	-417.122553	-417.170644	32.174
C         -0.07480        1.48760        0.01870
C          0.05760       -0.02360        0.11880
O          1.12860       -0.57970        0.29960
N         -1.10260       -0.72070       -0.00690
C         -1.13040       -2.15620        0.06650
C         -2.57520       -2.62360       -0.11200
N         -2.74700       -3.96930       -0.06380
O         -3.49320       -1.84160       -0.28350
H          0.55360        1.84210       -0.80260
H         -1.10070        1.82690       -0.14380
H          0.30870        1.93600        0.93900
H         -2.00050       -0.28320       -0.15690
H         -0.49400       -2.60700       -0.70710
H         -0.73860       -2.51360        1.02840
H         -1.98160       -4.60500        0.07820
H         -3.67560       -4.34130       -0.17470
