16
gdb 21155	3.36994	1.86354	1.22039	4.3577	68.47	-0.1958	0.0093	0.2051	974.1946	0.131702	-376.100031	-376.091853	-376.090909	-376.13299	28.786
C         -0.11140        1.47310       -0.00440
N          0.02130        0.02410       -0.10570
C         -1.14470       -0.72880       -0.01050
C         -1.27680       -2.10740        0.01090
C         -0.27890       -3.21310       -0.01660
N         -2.62770       -2.27190        0.05760
N         -3.28770       -1.10800        0.04740
N         -2.38280       -0.16180        0.01410
H          0.87790        1.92160       -0.12520
H         -0.75930        1.83370       -0.80620
H         -0.54650        1.81020        0.94720
H          0.76620       -0.33820        0.47240
H          0.00120       -3.55850        0.98680
H         -0.65240       -4.08110       -0.57000
H          0.63360       -2.87410       -0.51630
H         -3.15150       -3.13240        0.08260
