18
gdb 8080	3.57521	2.18131	1.73557	1.3898	71.69	-0.2327	0.0179	0.2506	808.9814	0.155528	-347.801989	-347.795317	-347.794372	-347.832125	27.985
O         -0.01670        1.42460       -0.03010
C          0.01600        0.02300        0.02580
C          0.25210       -0.71310        1.38340
C         -0.67920       -1.81720        0.79990
C         -1.36060       -0.68370       -0.02650
C          0.11770       -2.75940       -0.12180
C          0.96330       -1.95210       -1.08100
C          0.91480       -0.62210       -1.01650
H          0.88830        1.75050        0.02710
H          1.27770       -0.98120        1.65100
H         -0.23050       -0.17580        2.20390
H         -1.30360       -2.37320        1.50120
H         -2.09610       -0.14260        0.57410
H         -1.77180       -0.92030       -1.01040
H          0.75220       -3.42990        0.47530
H         -0.56520       -3.41500       -0.68060
H          1.58090       -2.47310       -1.80700
H          1.47250        0.02640       -1.68690
