16
gdb 7131	7.52875	0.85902	0.77847	3.5999	64.99	-0.2415	-0.0128	0.2287	1393.9195	0.129315	-417.077518	-417.068243	-417.067299	-417.113141	31.005
O         -0.28880        1.55220        0.01330
C          0.01210        0.16430        0.00260
C         -1.31710       -0.57640        0.01150
C         -1.12840       -2.09010        0.00070
O         -0.04680       -2.62370       -0.01410
N         -2.34310       -2.77950        0.01040
C         -2.58010       -4.15280        0.00510
N         -1.67680       -5.04040       -0.00910
H          0.54200        2.03590        0.00850
H          0.58720       -0.12370       -0.88810
H          0.60460       -0.13360        0.87850
H         -1.89500       -0.28140        0.89670
H         -1.91240       -0.27120       -0.85850
H         -3.17140       -2.20550        0.02270
H         -3.66090       -4.34710        0.01530
H         -2.10810       -5.96350       -0.00970
