18
gdb 6524	2.79999	1.96427	1.37592	3.4841	69.38	-0.2512	-0.0365	0.2147	955.8103	0.149176	-384.942718	-384.933257	-384.932313	-384.976575	33.607
C         -0.09440        1.47510       -0.06470
C         -0.00940       -0.03150        0.08720
C         -1.12600       -0.77700       -0.61520
O          1.29220       -0.60270       -0.06140
C          0.72580       -0.64010        1.24900
C          1.41060        0.17890        2.32680
C          0.31480       -2.00500        1.74160
O          0.22720       -3.00020        1.07000
H          0.76960        1.99000        0.35440
H         -0.14850        1.72730       -1.12930
H         -1.00150        1.86050        0.41250
H         -1.11800       -0.51540       -1.67880
H         -1.00470       -1.85510       -0.52550
H         -2.10040       -0.48400       -0.20970
H          1.73410        1.14980        1.95520
H          0.74130        0.33820        3.17900
H          2.29780       -0.34890        2.69400
H          0.09370       -2.02850        2.83390
