15
gdb 13916	3.73736	1.8706	1.54723	2.8319	62.16	-0.258	0.0048	0.2628	843.4323	0.119387	-399.77148	-399.764467	-399.763523	-399.803212	25.549
N          0.14340        1.23280       -0.17340
C          0.07400        0.00260        0.04760
O          1.02280       -0.90400        0.47790
C          0.07570       -2.01580        0.39320
C         -1.04090       -1.03670       -0.02030
C         -2.37070       -0.83340        0.73010
C         -3.00690       -0.98630       -0.66560
O         -1.71190       -1.25250       -1.25890
H          1.08450        1.59630       -0.01290
H          0.35930       -2.72240       -0.39040
H         -0.03290       -2.51750        1.35810
H         -2.61350       -1.62430        1.44190
H         -2.48320        0.14120        1.20480
H         -3.69380       -1.82800       -0.80250
H         -3.45670       -0.07670       -1.07630
