14
gdb 20745	3.37377	2.3451	1.39521	1.8048	69.97	-0.2208	-0.0408	0.18	836.3972	0.109257	-374.891074	-374.884171	-374.883227	-374.922115	25.802
C         -0.04550        1.47670        0.03120
C         -0.02510       -0.01670        0.01340
N         -0.06360       -0.62340       -1.13700
N         -0.04530       -1.96440       -1.12850
N          0.00840       -2.77300       -0.07410
C          0.04790       -2.19620        1.08870
C          0.03640       -0.75350        1.28400
N          0.07430       -0.11470        2.40250
H          0.84440        1.85750        0.54310
H         -0.09260        1.87080       -0.98470
H         -0.90120        1.83290        0.61430
H         -0.07580       -2.40970       -2.03020
H          0.09170       -2.86080        1.94780
H          0.11530       -0.77050        3.18650
