18
gdb 19119	2.72034	1.95764	1.38934	0.6663	78.02	-0.235	0.052	0.287	958.8127	0.152667	-310.608045	-310.599971	-310.599026	-310.64032	31.252
C          0.08090       -1.20130        0.03540
C          0.04090        0.00170        0.02700
C         -0.01710        1.43950        0.00970
C          0.47900        2.16810        1.25410
C          1.31220        2.18670        0.00610
C         -1.16650        2.05860       -0.74850
C         -1.69670        1.44840       -2.02050
C         -2.53560        1.42870       -0.76540
H          0.12230       -2.26210        0.04740
H         -0.05550        3.06980        1.53330
H          0.81500        1.56340        2.08770
H          2.21930        1.59480       -0.01550
H          1.35260        3.10130       -0.57580
H         -1.14290        3.14470       -0.71570
H         -1.98120        2.11380       -2.82810
H         -1.26230        0.50790       -2.34080
H         -2.65170        0.47540       -0.26200
H         -3.40000        2.08060       -0.70520
