18
gdb 12134	4.53618	1.65924	1.47554	1.5137	72.88	-0.2221	0.0825	0.3046	922.624	0.152594	-347.751651	-347.744182	-347.743238	-347.782893	29.578
C          0.07590        1.46440       -0.04100
C          0.07010       -0.02380        0.07030
C         -0.89020       -0.87950        0.84000
C          0.60620       -1.01820        1.08060
C          1.21610       -1.69430       -0.11730
C          2.61270       -2.17530       -0.31630
C          1.42930       -3.12930       -0.46070
O          0.60950       -0.77140       -1.03900
H          1.08230        1.83840       -0.25250
H         -0.58590        1.79060       -0.85150
H         -0.28010        1.91890        0.88800
H         -1.43020       -0.37580        1.63630
H         -1.43940       -1.66910        0.33480
H          1.08000       -0.86910        2.04170
H          3.11740       -1.86460       -1.22460
H          3.25550       -2.27430        0.55270
H          1.26700       -3.88030        0.30540
H          1.16530       -3.43960       -1.46590
