16
gdb 20627	3.96365	2.038	1.38114	2.9404	72.37	-0.2235	0.0342	0.2577	888.6376	0.132669	-342.774983	-342.767801	-342.766857	-342.807599	25.738
C         -0.09080        1.56900        0.03510
C          0.06900        0.08050       -0.00450
C          0.12670       -0.80150       -1.07340
C          0.13360       -1.33200       -2.50430
C          0.31150       -2.75750       -1.83670
N          0.27790       -2.03130       -0.56090
N          0.33310       -2.10600        0.77110
C          0.20430       -0.80770        1.10310
H         -0.09270        1.92710        1.06850
H          0.72200        2.08540       -0.48830
H         -1.03000        1.89570       -0.42580
H         -0.79590       -1.21040       -3.06550
H          0.97400       -1.01870       -3.12810
H         -0.51980       -3.45350       -1.97580
H          1.26060       -3.26070       -2.03860
H          0.21110       -0.52990        2.14850
