18
gdb 15888	2.67055	1.85797	1.21438	4.1021	67.65	-0.2663	0.0131	0.2794	1027.0368	0.153096	-384.981623	-384.973157	-384.972213	-385.014736	30.531
C         -0.05260        1.68250       -0.09660
C          0.16970        0.17770        0.09570
C          0.77000       -0.47090       -1.15200
C          0.92450       -2.01110       -1.26980
C          0.39740       -2.91400       -0.17660
O          0.03200       -2.00230       -2.44430
C         -0.15820       -0.64820       -2.35650
O         -0.85320        0.03350       -3.04200
H          0.89540        2.20090       -0.27710
H         -0.70510        1.87110       -0.95360
H         -0.51260        2.12510        0.79160
H          0.84030        0.00110        0.94570
H         -0.78260       -0.30290        0.34540
H          1.68430        0.05780       -1.44180
H          1.92170       -2.32560       -1.59110
H         -0.61880       -2.63910        0.11670
H          0.38370       -3.95180       -0.52150
H          1.04320       -2.85740        0.70580
