14
gdb 19173	3.89946	1.84903	1.49488	3.2245	57.6	-0.2392	-0.0102	0.2291	819.3691	0.107069	-419.625212	-419.618508	-419.617564	-419.655758	26.424
O          0.23870        1.36350       -0.22050
C          0.06210        0.00050       -0.05080
C          0.00040       -0.64370        1.40140
C         -1.46260       -0.10780        1.49950
O         -1.57000        1.28560        1.72990
C         -1.39410       -0.63710        0.01320
C         -0.66080       -1.81180        0.65960
O         -0.61630       -3.00200        0.60970
H         -0.33220        1.80740        0.42320
H          0.74520       -0.49640       -0.74230
H          0.76060       -0.64980        2.17820
H         -2.13280       -0.65390        2.17210
H         -2.48710        1.54380        1.58840
H         -2.17510       -0.63470       -0.74390
