14
gdb 4982	3.42654	2.36001	1.40352	3.7846	67.71	-0.2135	-0.0122	0.2013	824.8888	0.111369	-374.964295	-374.95766	-374.956716	-374.994716	25.901
N          0.03070        1.43030        0.08300
C         -0.00340        0.02540        0.01650
C         -1.15480       -0.74070        0.06310
N         -1.15020       -2.08270        0.03910
C          0.04700       -2.64770       -0.05030
N          1.23060       -2.02720       -0.08590
C          1.21030       -0.69780       -0.04040
N          2.40840       -0.01500       -0.09700
H          0.60810        1.83700       -0.64600
H         -0.89290        1.84460        0.04740
H         -2.12880       -0.25540        0.12290
H          0.07600       -3.73370       -0.09010
H          3.21070       -0.61090        0.05360
H          2.43100        0.84590        0.43320
