13
gdb 18316	3.9337	2.13744	1.48391	2.404	58.93	-0.2499	-0.0419	0.208	787.9819	0.096388	-398.58125	-398.575094	-398.57415	-398.611691	23.132
O         -0.22450       -0.06360        0.01970
C         -0.08740        1.12240        0.02530
C         -1.21710        2.21460        0.04330
N         -0.63560        3.38840        0.73470
C          0.61070        3.20800        0.62490
O          1.69930        3.60500        1.35060
C          2.30320        2.27360        1.08230
C          1.19930        1.98670        0.02230
H         -1.53200        2.43390       -0.98610
H         -2.09440        1.85040        0.58500
H          3.31950        2.37430        0.70140
H          2.27010        1.66530        1.98810
H          1.56880        2.07000       -1.00330
