17
gdb 8303	6.01226	0.94725	0.88596	1.3619	66.4	-0.2629	0.0262	0.2891	1284.0445	0.141841	-400.995225	-400.986943	-400.985999	-401.028685	29.689
O          0.35800        1.35050        0.30900
C          0.13090       -0.00360       -0.04370
C         -1.28990       -0.46760        0.29440
C         -1.52640       -1.92770       -0.02980
C         -2.97680       -2.45750       -0.02800
C         -2.73490       -2.67890       -1.50610
N         -3.41380       -3.13590       -2.45490
O         -1.44250       -2.19350       -1.47820
H         -0.16860        1.90160       -0.27850
H          0.33580       -0.18800       -1.10800
H          0.85870       -0.58640        0.53210
H         -1.47490       -0.30620        1.36360
H         -2.01880        0.14240       -0.25620
H         -0.81140       -2.57430        0.48990
H         -3.16040       -3.36580        0.54760
H         -3.74630       -1.71780        0.20220
H         -2.88330       -3.12830       -3.32780
