22
gdb 6174	3.29537	1.28868	1.18618	1.7313	78.69	-0.2536	0.0842	0.3377	1181.4947	0.197018	-350.208721	-350.198686	-350.197742	-350.24313	36.891
C          0.32030        0.71260        1.52200
C         -0.47010       -0.56700        1.83360
C         -1.15030       -0.49520        3.20840
C         -1.50380       -0.80810        0.75240
O         -1.03720       -1.19540       -0.54630
C         -1.88450       -2.11220        0.17350
C         -1.22880       -3.41070        0.59240
C         -3.27050       -2.26920       -0.41900
H          1.10130        0.88280        2.27020
H          0.79360        0.64410        0.53860
H         -0.33720        1.59020        1.52060
H          0.23460       -1.40530        1.83490
H         -1.88280        0.32010        3.24250
H         -1.67570       -1.42570        3.44660
H         -0.41540       -0.31040        3.99820
H         -2.27160       -0.02740        0.71800
H         -1.19110       -4.10000       -0.25850
H         -0.20760       -3.25750        0.94330
H         -1.80450       -3.89760        1.38730
H         -3.23840       -2.92140       -1.29890
H         -3.95710       -2.72010        0.30590
H         -3.67420       -1.30160       -0.72650
