20
gdb 7442	2.93417	1.45272	1.2826	2.782	71.3	-0.2637	-0.0257	0.238	1078.2715	0.173794	-386.172513	-386.162665	-386.161721	-386.206943	35.538
C         -0.23080        1.43460       -0.06830
C          0.04200       -0.07420       -0.01030
C          0.77400       -0.55650       -1.26920
C          0.86620       -0.44930        1.24900
O          2.11650        0.18700        1.23950
C          0.13550       -0.11900        2.55330
C         -1.21160       -0.75100        2.81640
O          0.66130        0.63590        3.34570
H          0.71320        1.98640       -0.07050
H         -0.78200        1.69390       -0.97710
H         -0.81890        1.78260        0.78810
H         -0.91460       -0.61010        0.05490
H          1.75790       -0.08470       -1.34210
H          0.92060       -1.64190       -1.25350
H          0.20440       -0.30580       -2.16970
H          1.00640       -1.54570        1.24070
H          2.14770        0.69000        2.07040
H         -1.22520       -1.80330        2.51720
H         -1.46150       -0.65470        3.87380
H         -1.97930       -0.23730        2.22640
