17
gdb 4918	6.59189	1.21238	1.03712	0.834	72.78	-0.1598	0.0633	0.2231	1124.2687	0.143763	-360.060936	-360.052477	-360.051533	-360.093574	31.331
C         -0.00950        1.41650        0.06720
N          0.01940       -0.01170       -0.18400
C         -1.19000       -0.70580       -0.04620
C         -2.45990       -0.17630        0.01170
N         -3.35140       -1.24520        0.04430
C         -2.66050       -2.42320        0.04180
N         -3.36360       -3.64000        0.16260
C         -1.31640       -2.13300       -0.02900
H          1.00490        1.81800        0.00130
H         -0.61400        1.91220       -0.70140
H         -0.43410        1.68640        1.04950
H          0.77350       -0.47250        0.30640
H         -2.81170        0.84030       -0.00560
H         -4.32720       -1.17790        0.27330
H         -3.86580       -3.87810       -0.68820
H         -2.72340       -4.39850        0.36240
H         -0.51300       -2.85020       -0.10850
