17
gdb 2300	7.62133	1.28881	1.19164	0.9669	60.68	-0.244	0.0787	0.3227	1001.811	0.148088	-346.828378	-346.820584	-346.81964	-346.861042	27.053
O         -0.10320        1.41840       -0.16430
C         -0.01380        0.00230       -0.09620
C         -1.42170       -0.54440        0.10560
C         -1.45010       -2.05860        0.19060
C         -2.82130       -2.76690        0.11330
C         -2.22360       -3.47910       -1.11650
O         -1.01530       -2.69530       -1.03990
H          0.77120        1.76320       -0.36660
H          0.40820       -0.42200       -1.01860
H          0.63170       -0.31600        0.73960
H         -1.84380       -0.12410        1.02760
H         -2.05420       -0.21150       -0.72540
H         -0.82950       -2.40260        1.03200
H         -3.08530       -3.40230        0.95970
H         -3.65440       -2.09640       -0.10800
H         -2.02400       -4.55010       -0.98120
H         -2.74630       -3.33600       -2.06940
