13
gdb 4745	5.30069	1.43166	1.1287	5.763	68.81	-0.2077	-0.0527	0.155	974.1576	0.097171	-394.826315	-394.819313	-394.818369	-394.857462	25.911
N         -0.02630        1.40830        0.14940
C         -0.03210        0.02280        0.04790
C         -1.12620       -0.83710        0.02200
N         -0.58520       -2.09260       -0.01090
C          0.77590       -1.96420        0.00050
C          1.63510       -3.14170       -0.02890
O          2.84320       -3.13880       -0.02300
N          1.12630       -0.68170        0.03250
H          0.87630        1.79220       -0.09710
H         -0.77160        1.87060       -0.35160
H         -2.18900       -0.66390        0.03200
H         -1.09880       -2.95870       -0.03870
H          1.05640       -4.09710       -0.05960
