17
gdb 19105	4.51256	2.15055	2.10559	2.0135	69.07	-0.2266	0.0782	0.3049	733.8042	0.144227	-326.642375	-326.636435	-326.635491	-326.672076	24.536
C         -0.06340        1.62330        0.01270
C          0.02820        0.10670        0.01740
C          1.06920       -0.62800       -0.87460
C          2.46800       -0.25430       -0.34020
C          2.22670       -0.26430        1.13080
C          0.73130       -0.64210        1.18520
C          1.18330       -1.76200        0.19400
N          2.67910       -1.52030        0.44110
H          0.92080        2.07450        0.17730
H         -0.44730        1.99460       -0.94370
H         -0.73360        1.98270        0.80130
H         -0.95780       -0.34690       -0.14750
H          0.93230       -0.78880       -1.94210
H          3.28680        0.25570       -0.83250
H          2.84420        0.23720        1.86560
H          0.26090       -0.81690        2.15090
H          0.78600       -2.77170        0.12200
