15
gdb 10258	2.22444	2.05769	1.11835	4.8004	67.05	-0.2863	0.0138	0.3001	1021.4613	0.115717	-362.635333	-362.62622	-362.625276	-362.669038	32.152
C         -0.06650        1.56510       -0.04360
C          0.00330        0.04080       -0.03920
O          0.78820       -0.45470       -1.11000
C          0.70440       -0.51000        1.23670
C          0.07290       -0.05460        2.47450
C         -0.45010        0.32390        3.48630
C          0.75460       -1.98140        1.19700
N          0.78580       -3.13540        1.18300
H          0.94000        1.99290        0.00100
H         -0.54200        1.91010       -0.96760
H         -0.65090        1.93990        0.80000
H         -1.01180       -0.38080       -0.06670
H          0.32700       -0.27690       -1.93510
H          1.74130       -0.14800        1.19880
H         -0.90930        0.65240        4.38630
