16
gdb 13433	3.72318	1.49868	1.32991	1.8464	65.73	-0.2424	0.0439	0.2863	953.0182	0.128823	-383.678588	-383.670428	-383.669484	-383.711018	30.913
O         -0.35570        1.15140       -0.37320
C         -0.16840       -0.20960       -0.10270
C         -0.34920       -0.56260        1.34930
O         -0.70750        0.47420        2.20410
C         -1.36070       -1.04980        0.31820
C         -2.75900       -0.44430        0.30910
C         -3.13660        0.10850       -0.99160
C         -3.39710        0.57340       -2.07120
H         -1.07730        1.23810       -1.01150
H          0.62230       -0.68160       -0.68220
H          0.30840       -1.29080        1.81450
H         -0.60500        1.28680        1.68580
H         -1.30720       -2.09760        0.03940
H         -3.48800       -1.20610        0.60780
H         -2.80960        0.34060        1.07230
H         -3.66270        0.96870       -3.02070
