20
gdb 10608	2.33437	1.7719	1.33471	0.9909	71.42	-0.2418	0.0796	0.3214	1045.7037	0.174331	-386.11246	-386.102907	-386.101963	-386.146413	34.843
C         -0.73650        1.38330        0.63460
C         -0.04120        0.13390        0.08360
C          0.90920       -0.49200        1.08590
C          0.36280       -1.38080        2.17580
C          1.19490       -1.97000        1.05340
O          0.58840       -2.73700        0.05380
O          1.96610        0.32230        1.52470
C          2.95880        0.57540        0.54780
H         -0.00250        2.12870        0.95390
H         -1.38210        1.83970       -0.12170
H         -1.35530        1.13770        1.50400
H         -0.77220       -0.62310       -0.21230
H          0.50970        0.38670       -0.83110
H          0.81580       -1.30540        3.15760
H         -0.70390       -1.57960        2.16280
H          2.21330       -2.26200        1.31010
H          0.29650       -3.56440        0.45060
H          3.35080       -0.35650        0.11650
H          2.58880        1.20710       -0.27140
H          3.77080        1.10340        1.05370
