15
gdb 16041	3.50662	1.77289	1.46341	3.0219	67.74	-0.229	0.0038	0.2328	874.9834	0.120896	-358.796942	-358.789697	-358.788752	-358.828257	27.349
N         -0.07610        1.49330       -0.00100
C         -0.07500        0.06180       -0.02210
C         -1.32060       -0.77060        0.06690
C         -2.45820       -0.16510       -0.75810
N         -1.54630        0.01540       -1.93940
C         -0.49230       -0.76190       -1.23950
C          0.28270       -1.76940       -1.87260
N          0.92120       -2.58440       -2.39390
H          0.86030        1.83340       -0.19960
H         -0.66740        1.83180       -0.75780
H          0.75440       -0.37730        0.52420
H         -1.43440       -1.56270        0.79570
H         -3.25330       -0.89190       -0.94590
H         -2.89880        0.76770       -0.39180
H         -1.89120       -0.47230       -2.75850
