20
gdb 6980	2.52294	2.17825	1.64759	1.5804	70.05	-0.2433	0.0696	0.3129	901.8043	0.176295	-386.146246	-386.137514	-386.13657	-386.178857	32.967
C         -0.32060        1.58070        0.03630
C          0.01890        0.08870        0.04040
C         -1.26250       -0.75620       -0.06710
C          1.00730       -0.30890       -1.07170
O          1.56200       -1.55840       -0.66890
C          1.55010       -1.62810        0.75390
C          0.84020       -0.36240        1.27320
O          1.76610        0.67000        1.59260
H          0.57520        2.19330        0.14680
H         -0.81800        1.85320       -0.90120
H         -1.00340        1.82980        0.85560
H         -1.83190       -0.46720       -0.95660
H         -1.03830       -1.82330       -0.15040
H         -1.90850       -0.60680        0.80460
H          0.52760       -0.45260       -2.04520
H          1.79490        0.45190       -1.17420
H          1.03090       -2.54550        1.06080
H          2.57810       -1.67640        1.14200
H          0.19640       -0.58150        2.13720
H          2.37270        0.33200        2.25820
