16
gdb 3171	5.69268	2.31645	1.91871	1.4223	67.27	-0.2207	0.0178	0.2385	703.9577	0.138778	-288.627624	-288.621359	-288.620415	-288.658252	23.965
C         -0.07560        1.50620        0.00370
N          1.23320        0.83060        0.00140
C         -0.00910        0.02240        0.00670
C         -0.30360       -0.85440        1.23230
C         -0.65330       -2.25810        0.66210
C         -0.73050       -2.03420       -0.83060
C         -0.38710       -0.79350       -1.17570
H         -0.31320        2.03380        0.92470
H         -0.41380        2.00760       -0.90060
H          1.63160        0.84760       -0.93550
H          0.55950       -0.87230        1.90100
H         -1.14910       -0.44850        1.79570
H          0.10860       -3.00970        0.90670
H         -1.59700       -2.64260        1.06650
H         -1.02420       -2.81610       -1.52220
H         -0.35300       -0.39850       -2.18620
