16
gdb 20276	5.34839	2.077	1.98569	2.119	66.29	-0.2293	0.0881	0.3173	718.3373	0.132858	-346.517376	-346.51206	-346.511116	-346.546397	23.056
C         -0.01530        1.52260        0.05330
C          1.31240        0.80140        0.01120
C          0.01350        0.01180        0.02040
C          0.06810       -0.66000       -1.33890
C          0.70640        0.30730       -2.37990
O          1.37540       -0.80130       -3.07160
C          1.55240       -1.07590       -1.64590
C          1.86960        0.43510       -1.35160
H         -0.28680        1.98020        0.99910
H         -0.35820        2.07660       -0.81450
H          1.97000        0.83770        0.87150
H         -0.31260       -0.54990        0.88760
H         -0.73410       -1.31680       -1.67260
H          0.23660        1.07300       -2.99780
H          2.10130       -1.97550       -1.36270
H          2.81840        0.84280       -1.69760
