13
gdb 21007	7.54065	1.31096	1.12478	4.6166	70.74	-0.2382	-0.0122	0.226	1001.6044	0.095603	-357.611831	-357.604548	-357.603604	-357.643666	25.952
C          0.00410        1.46370        0.04750
N          0.00130        0.01830       -0.06520
C          0.05850       -0.75510       -1.16880
C          0.02260       -2.05090       -0.68940
N         -0.05330       -1.98980        0.68170
N         -0.06610       -0.74690        1.04850
C          0.05510       -3.26360       -1.41390
C          0.08330       -4.29240       -2.03700
H          0.92360        1.88060       -0.37180
H         -0.85790        1.89190       -0.47070
H         -0.05330        1.70180        1.10940
H          0.11720       -0.35460       -2.16630
H          0.10790       -5.20410       -2.58090
