10
gdb 3845	6.21933	2.97822	2.01386	0.1101	52.13	-0.2583	-0.0995	0.1588	571.9005	0.069525	-351.646368	-351.641162	-351.640218	-351.675535	18.7
N         -0.10730        1.33620        0.00840
C          0.03810        0.07660        0.00110
N         -1.11690       -0.72970        0.00360
N         -1.15600       -2.05090       -0.00300
N         -0.05350       -2.69710       -0.01260
C          1.11560       -1.93660       -0.01560
N          1.22860       -0.65370       -0.00950
H          0.80910        1.78150        0.00540
H         -2.02080       -0.27430        0.01100
H          2.02150       -2.53840       -0.02360
