15
gdb 14815	2.77951	1.77421	1.22571	4.315	65.98	-0.2602	-0.042	0.2182	966.0109	0.118603	-362.672192	-362.664466	-362.663521	-362.705121	27.126
O          0.65570       -0.28080       -0.47950
C          0.35060        0.77140        0.01980
C          1.23690        1.99150        0.01590
C          0.67460        3.27630       -0.66950
C          1.28950        4.12950        0.46640
C          1.41180        2.83400        1.33720
C          0.33210        2.68500        2.30340
N         -0.53080        2.58190        3.06660
H         -0.64050        0.91830        0.50280
H          2.21530        1.71330       -0.37930
H          1.00510        3.46470       -1.69150
H         -0.41900        3.29490       -0.64270
H          2.28040        4.51150        0.21250
H          0.68770        4.93980        0.87840
H          2.36370        2.68310        1.85090
