8
gdb 484	619867.68314	1.33455	1.33454	0.0151	72.39	-0.2465	-0.0565	0.19	802.1485	0.046718	-229.615446	-229.609222	-229.608278	-229.639949	21.875
C          0.07200       -5.13850       -0.02790
C          0.05430       -3.92940       -0.01660
C          0.03580       -2.57660       -0.00790
C          0.01980       -1.35920       -0.00080
C          0.00220       -0.00630        0.00350
C         -0.01370        1.20280        0.00600
H          0.08860       -6.19980       -0.04200
H         -0.02730        2.26420        0.00540
