16
gdb 20556	4.53736	1.43198	1.42594	6.0621	65.18	-0.2784	-0.0091	0.2693	945.8494	0.131103	-376.093951	-376.086255	-376.085311	-376.127589	27.24
C         -0.15130        1.58840       -0.08410
C         -0.02110        0.06320       -0.03900
C         -1.36130       -0.64370        0.18420
N          0.63310       -0.43770       -1.25480
C          0.27320       -0.38180       -2.54940
N          1.19050       -0.97800       -3.28150
N          2.13230       -1.40660       -2.40160
N          1.81350       -1.09180       -1.19000
H          0.82110        2.05920       -0.24900
H         -0.83060        1.90690       -0.88150
H         -0.55570        1.95190        0.86460
H          0.67200       -0.21690        0.75810
H         -2.07820       -0.39640       -0.60550
H         -1.23160       -1.72860        0.20680
H         -1.79140       -0.32660        1.13820
H         -0.62790        0.08230       -2.91430
