13
gdb 19005	5.55976	1.93276	1.69791	2.5124	57.08	-0.2407	-0.0009	0.2397	729.9449	0.096944	-398.554661	-398.549128	-398.548184	-398.584121	22.331
O         -0.05730       -0.02960        0.03130
C         -0.02090        1.17200       -0.04320
N         -1.09500        2.05580       -0.15140
C         -0.50730        3.37080        0.00950
C          0.79780        3.39850       -0.83210
O          1.44110        4.29540        0.13360
C          0.74240        3.31040        0.95670
C          1.16690        2.13120        0.00710
H         -1.99850        1.80420        0.22030
H         -1.18170        4.22280        0.01930
H          0.94440        3.58330       -1.89610
H          0.82950        3.38680        2.04100
H          2.17770        1.73520        0.02050
