16
gdb 13968	5.70455	1.26049	1.16109	3.8612	66.02	-0.2647	0.0039	0.2686	1030.8902	0.130066	-383.729377	-383.722046	-383.721102	-383.761382	27.021
O          0.04010       -0.00910       -0.23430
C          0.10680        1.17890       -0.31760
O          1.02540        1.90310        0.36600
C          0.97540        3.29560        0.23190
C          1.13120        3.99350       -1.08690
C          2.13670        4.24950        0.01540
C          1.54040        5.21580        1.04810
C          0.36900        4.20490        1.29980
H         -0.54640        1.80920       -0.94790
H          1.50210        3.36540       -1.89070
H          0.43320        4.76690       -1.40070
H          3.18700        4.02740       -0.12320
H          2.16810        5.35380        1.92990
H          1.25450        6.19770        0.65950
H         -0.65370        4.55360        1.12470
H          0.42820        3.75430        2.29250
