18
gdb 10309	2.46735	1.69082	1.0667	4.1884	68.89	-0.2514	0.0312	0.2826	1113.865	0.152253	-381.121234	-381.111581	-381.110637	-381.155643	33.961
C         -0.02800        1.49680       -0.18060
N         -0.02520        0.06830        0.13270
C         -1.33560       -0.56720        0.08600
C         -1.92540       -0.55930       -1.27460
N         -2.30700       -0.49520       -2.36410
C         -1.27170       -2.01590        0.64230
C         -0.85110       -2.03280        2.10810
O         -2.49780       -2.68860        0.42410
H          0.99950        1.86790       -0.14880
H         -0.45800        1.73880       -1.16460
H         -0.60110        2.03310        0.58340
H          0.60030       -0.41780       -0.50280
H         -2.00820        0.01250        0.73400
H         -0.53860       -2.56810        0.04110
H         -0.76620       -3.06430        2.45900
H          0.10360       -1.52130        2.24430
H         -1.59840       -1.52000        2.72790
H         -3.14580       -2.34830        1.05120
