15
gdb 4855	6.41883	1.28806	1.08015	0.2621	64.06	-0.1633	0.0732	0.2365	1047.5976	0.118648	-399.816262	-399.808201	-399.807257	-399.848578	29.317
C         -0.07800        0.83240       -0.59540
O          0.11400        0.97230        0.80000
C          0.79990       -0.04290        1.37510
C          1.36510       -1.20100        0.91510
C          1.95810       -1.85680        2.05700
C          1.71860       -1.06050        3.14100
O          2.02260       -1.14340        4.46450
N          1.01350        0.04610        2.73330
H         -0.64890       -0.07660       -0.82600
H         -0.63760        1.70970       -0.92300
H          0.88350        0.78980       -1.12360
H          1.36960       -1.55740       -0.10130
H          2.48880       -2.79610        2.05660
H          2.51140       -1.95930        4.60640
H          0.70390        0.79690        3.32520
