22
gdb 16016	3.50088	1.73548	1.40483	0.1784	81.45	-0.2589	0.0841	0.3429	989.8003	0.203403	-313.087163	-313.079733	-313.078789	-313.118348	30.622
C          0.01010        1.53140        0.01020
C          1.31760        0.77270       -0.00640
C          0.00290        0.02730        0.00220
C         -0.39380       -0.71430        1.27030
C          0.12690       -2.16090        1.25790
C         -0.32040       -2.90250       -0.01050
C          0.10260       -2.14720       -1.27910
C         -0.41810       -0.70070       -1.26600
H         -0.27140        2.04180        0.92610
H         -0.28880        2.05160       -0.89460
H          1.90080        0.78190       -0.92190
H          1.91830        0.77220        0.89780
H         -0.02220       -0.18010        2.15240
H         -1.49060       -0.72710        1.35190
H          1.22430       -2.14820        1.30070
H         -0.21670       -2.69300        2.15210
H          0.08800       -3.91930       -0.01980
H         -1.41480       -3.00630       -0.00050
H          1.19900       -2.13400       -1.34280
H         -0.25810       -2.66980       -2.17220
H         -1.51630       -0.71270       -1.32670
H         -0.06350       -0.15700       -2.14930
