11
gdb 21414	3.4031	2.5131	1.44558	4.3374	56.24	-0.2626	-0.0654	0.1973	763.3071	0.073645	-430.719672	-430.713426	-430.712481	-430.750293	22.896
N         -0.11300        1.24470       -0.36840
C         -0.01540        0.02550       -0.03880
N         -1.12910       -0.72800        0.29130
C         -1.02610       -2.03940        0.64610
N          0.04750       -2.73450        0.72440
O          1.25000       -2.04230        0.40180
C          1.28830       -0.73560        0.03310
O          2.33780       -0.21780       -0.22440
H          0.82060        1.60640       -0.56990
H         -2.02760       -0.26700        0.25950
H         -1.94510       -2.56030        0.89040
