16
gdb 9946	3.38729	1.44728	1.38438	4.2644	62.93	-0.2428	-0.0187	0.224	955.6644	0.127667	-420.861148	-420.852432	-420.851488	-420.894248	31.384
C         -0.05290        1.55190        0.10160
C         -0.03590        0.03810        0.09290
C         -1.28690       -0.65240       -0.30300
O         -2.29660       -0.10780       -0.67840
C          1.26930       -0.70690       -0.33770
O          2.37980        0.04280       -0.67790
C          0.83650       -0.72970        1.08640
O          1.56630        0.08780        1.96240
H         -0.09950        1.95000        1.11840
H          0.83730        1.95740       -0.38600
H         -0.93650        1.88890       -0.44410
H         -1.23270       -1.76620       -0.24740
H          1.16430       -1.59180       -0.95690
H          2.65820        0.49890        0.12960
H          0.43180       -1.63940        1.52700
H          2.21480       -0.46550        2.41210
