12
gdb 21343	6.29057	1.35313	1.20312	2.9891	60.2	-0.2777	-0.0238	0.2539	930.5029	0.085655	-373.70206	-373.695456	-373.694512	-373.734047	22.872
N         -0.25730       -0.90110       -0.85280
C         -0.09320        0.09320       -0.28980
C          0.09140        1.37160        0.40320
N          1.38500        1.96970        0.13570
C          1.98370        2.26780       -1.04410
C          3.16490        2.85970       -0.67360
N          3.22840        2.89680        0.68770
N          2.15490        2.35890        1.17950
H         -0.71660        2.05290        0.11390
H          0.03940        1.22530        1.48530
H          1.54140        2.03060       -1.99700
H          3.95820        3.24990       -1.28970
