14
gdb 12904	3.39799	1.87079	1.53552	5.093	62.32	-0.2489	0.0261	0.275	837.7916	0.10773	-378.678072	-378.670954	-378.67001	-378.709297	26.66
N         -0.07920        1.47580        0.07450
C         -0.03890        0.06620       -0.04270
C          0.58360       -0.82290       -1.13120
O         -0.51090       -1.77700       -1.00640
C         -1.14970       -0.95420       -0.04780
C         -0.29400       -0.79560        1.19770
C          0.61860       -1.81000        1.64420
N          1.36900       -2.61740        1.99550
H          0.79460        1.84790        0.43360
H         -0.26820        1.92020       -0.81830
H          0.56730       -0.35330       -2.12120
H          1.55990       -1.27730       -0.93640
H         -2.23150       -0.89630       -0.03980
H         -0.77870       -0.22560        1.98440
