15
gdb 4354	3.79223	1.96544	1.30571	3.132	71.21	-0.2321	-0.0153	0.2168	905.9927	0.120918	-358.920358	-358.913004	-358.91206	-358.952538	27.235
C         -0.01800        1.47340        0.03000
C         -0.00240       -0.03060       -0.00720
N         -0.08670       -0.61710       -1.20500
C         -0.06570       -1.95850       -1.19470
C          0.03740       -2.71080       -0.04430
C          0.11920       -1.99030        1.16160
N          0.26620       -2.61190        2.37160
N          0.09440       -0.65330        1.17360
H          0.92270        1.85070        0.44470
H         -0.15720        1.87450       -0.97390
H         -0.81900        1.82940        0.68520
H         -0.13630       -2.44610       -2.16500
H          0.05720       -3.79420       -0.06750
H         -0.00230       -3.57780        2.45540
H          0.10890       -2.03030        3.17960
