20
gdb 7445	3.05389	1.45308	1.25685	3.5447	72.24	-0.2276	0.0624	0.29	1084.0968	0.176126	-382.36611	-382.356248	-382.355304	-382.400801	35.587
C          0.07430        1.49510       -0.09090
C         -0.01830       -0.02780        0.07230
C          0.71000       -0.52110        1.32870
N         -1.41080       -0.49860        0.03410
C         -2.31340       -0.17220        1.12330
C         -1.82560       -1.21720       -1.06480
N         -3.14350       -1.67140       -1.01460
O         -1.12640       -1.41710       -2.04630
H          1.12290        1.80620       -0.13470
H         -0.41580        1.81210       -1.01530
H         -0.38940        2.03000        0.74600
H          0.44070       -0.48960       -0.80330
H          0.28970       -0.09050        2.24460
H          0.65770       -1.61100        1.40830
H          1.76490       -0.23290        1.28750
H         -3.29270        0.12700        0.73860
H         -2.45440       -1.00410        1.83020
H         -1.91310        0.66980        1.69090
H         -3.52110       -1.95050       -0.12210
H         -3.32310       -2.33290       -1.75510
