16
gdb 9332	5.07722	0.87562	0.75733	1.2675	63.16	-0.255	-0.0974	0.1575	1435.9807	0.126649	-420.881603	-420.872287	-420.871342	-420.917066	30.542
C          0.10610        1.26370       -0.21210
O          0.28580       -0.12890       -0.10420
C          0.64170       -0.53410        1.19730
C          0.80440       -2.04610        1.18050
C          1.18760       -2.61390        2.52100
O          1.35690       -1.96450        3.52850
C          1.37660       -4.13600        2.60940
O          1.23540       -4.88000        1.67590
H          1.02670        1.81470        0.03700
H         -0.16520        1.47850       -1.24830
H         -0.69770        1.62410        0.44910
H          1.57920       -0.05280        1.51900
H         -0.12970       -0.24130        1.92760
H         -0.11950       -2.53430        0.84510
H          1.55920       -2.34920        0.44360
H          1.65770       -4.47250        3.62990
