15
gdb 9324	4.07159	1.07194	0.88262	3.9498	66.69	-0.2548	-0.0212	0.2336	1249.2938	0.117021	-399.784802	-399.775809	-399.774865	-399.819495	31.095
O          0.13380        1.23250       -0.43000
C         -0.13870       -0.09570        0.00270
C         -1.63180       -0.17080        0.28590
N         -2.39610        0.16840       -0.89820
C         -3.39580       -0.61730       -1.38460
O         -3.77280       -1.65320       -0.86460
C         -3.99240       -0.09840       -2.61120
C         -4.50690        0.30130       -3.62170
H          1.04240        1.27440       -0.74080
H          0.12750       -0.82920       -0.77230
H          0.41900       -0.34380        0.91820
H         -1.92270       -1.17900        0.58700
H         -1.87570        0.51730        1.10580
H         -2.12110        0.99380       -1.40700
H         -4.97080        0.64360       -4.51440
