19
gdb 20028	3.44651	1.5927	1.30118	1.8517	72.49	-0.2121	0.0807	0.2928	1011.8842	0.164643	-364.989816	-364.98146	-364.980516	-365.022804	30.741
C         -0.32170        1.17620       -0.45670
O         -0.56160       -0.07500       -1.07330
C          0.61210       -0.73670       -1.42840
C          1.35770       -1.55720       -0.39430
C          0.62170       -2.24580       -1.51900
N         -0.45710       -3.15950       -1.26220
C         -1.57990       -2.82450       -0.39450
C         -1.76470       -2.92590       -1.87080
H          0.24900        1.06480        0.47590
H          0.23360        1.85080       -1.12510
H         -1.29520        1.61910       -0.23440
H          1.20880       -0.19680       -2.16720
H          2.44210       -1.55950       -0.37340
H          0.88330       -1.61980        0.58010
H          1.24500       -2.62360       -2.32610
H         -1.90630       -3.63420        0.25380
H         -1.63560       -1.83020        0.03330
H         -1.91740       -1.99080       -2.40350
H         -2.24000       -3.79780       -2.31300
