14
gdb 5193	6.05089	1.13834	1.05528	2.4894	63.96	-0.2296	-0.0233	0.2063	1071.6651	0.106934	-382.573508	-382.566287	-382.565343	-382.606586	25.328
O         -0.08750       -0.11640       -0.02130
C          0.00980        1.08000       -0.08670
C          1.33210        1.83510       -0.14590
C          1.32550        2.88990       -1.21310
C          1.84660        2.78950       -2.46730
O          1.62760        3.92710       -3.17590
C          0.94530        4.77360       -2.36230
C          0.72980        4.19860       -1.15190
H         -0.89110        1.73480       -0.11090
H          1.48180        2.30020        0.83890
H          2.13220        1.10510       -0.29190
H          2.38740        2.01110       -2.98030
H          0.69730        5.73260       -2.78600
H          0.22200        4.64410       -0.31010
