20
gdb 12565	3.10295	1.83099	1.26515	2.194	70.8	-0.2529	0.0791	0.332	1002.5266	0.178691	-386.141595	-386.133647	-386.132703	-386.173835	30.156
C          0.02070        1.55710        0.04980
C         -0.01520        0.02310       -0.00660
C          0.63820       -0.48790       -1.30460
C          0.25910       -1.91960       -1.71150
O          0.08890       -2.84730       -0.64620
C          0.98050       -2.77250        0.43020
O          0.53050       -1.93250        1.45720
C          0.69460       -0.54380        1.23650
H          1.05140        1.93070        0.01760
H         -0.51420        1.99330       -0.79930
H         -0.44150        1.93540        0.96730
H         -1.06050       -0.30930        0.02710
H          0.36330        0.16370       -2.14330
H          1.72750       -0.39470       -1.20480
H         -0.70900       -1.91390       -2.22360
H          1.00240       -2.30250       -2.42810
H          1.01910       -3.77370        0.86710
H          1.98970       -2.47450        0.09500
H          1.76940       -0.29460        1.17420
H          0.29950       -0.06620        2.13860
