17
gdb 16744	3.61033	1.81239	1.65859	2.8055	67.15	-0.2333	-0.0285	0.2048	844.664	0.143355	-363.852695	-363.845658	-363.844713	-363.884378	26.52
O         -0.77820        1.58410        0.74090
C         -0.03850        1.57060       -0.20930
C          1.44590        1.88800       -0.18130
C          1.85890        2.90260       -1.28270
C          2.03640        4.21200       -0.52930
C          0.95370        4.65000        0.38890
N          2.14210        3.96770        0.92190
C          1.94590        2.52260        1.13980
H         -0.41730        1.28860       -1.21990
H          1.93260        0.92160       -0.37000
H          2.80870        2.60860       -1.73910
H          1.12130        2.96860       -2.09040
H          2.71930        4.94660       -0.94700
H          0.87540        5.69740        0.66600
H          0.00480        4.12030        0.38020
H          1.23980        2.34740        1.95550
H          2.91360        2.09840        1.42360
