16
gdb 12296	3.00939	2.21163	1.33585	5.7919	67.69	-0.2337	-0.0472	0.1866	895.2947	0.132625	-379.950051	-379.942785	-379.941841	-379.982035	27.228
N         -0.07230        1.25590        0.36800
C          0.01190        0.02980        0.01870
N          1.17520       -0.68720       -0.19650
C          1.26300       -1.96930       -0.88550
C          0.06410       -2.84220       -0.53250
C         -1.23000       -2.08730       -0.85100
C         -1.30260       -0.75170       -0.12630
O         -2.33480       -0.30700        0.30290
H          0.85360        1.68760        0.43480
H          2.01720       -0.12920       -0.20000
H          1.30760       -1.83680       -1.97960
H          2.19660       -2.45400       -0.58250
H          0.11230       -3.77880       -1.09600
H          0.09830       -3.09750        0.53290
H         -1.26680       -1.87150       -1.92960
H         -2.12950       -2.65610       -0.60460
