22
gdb 8497	2.57325	1.98716	1.88865	0.2161	82.46	-0.2745	0.0865	0.3609	923.9935	0.199719	-313.028842	-313.020224	-313.01928	-313.061232	33.811
C          0.84770        0.85820       -0.07020
C          0.31530       -0.55130       -0.09190
C          0.51280       -1.62320       -1.21220
C         -0.34860       -2.31920       -0.11930
C          0.65540       -1.70950        0.90110
C         -1.20400       -1.00320       -0.00790
C         -1.97650       -0.73430        1.29040
C         -2.14200       -0.63390       -1.16470
H          1.94090        0.86760       -0.14460
H          0.45180        1.44470       -0.90720
H          0.57240        1.37200        0.85780
H          0.07200       -1.44100       -2.19100
H          1.53250       -2.00360       -1.32030
H         -0.72420       -3.34440       -0.13590
H          1.67820       -2.09190        0.84030
H          0.35080       -1.60980        1.94160
H         -1.42730       -0.95870        2.20480
H         -2.27830        0.31860        1.33950
H         -2.89770       -1.32850        1.30900
H         -3.05990       -1.23080       -1.10890
H         -2.44310        0.41750       -1.08620
H         -1.72090       -0.77870       -2.15960
