10
gdb 23853	3.3853	2.39488	1.40262	3.6649	52.3	-0.2685	-0.0775	0.191	761.2083	0.060067	-458.545467	-458.539565	-458.53862	-458.575726	21.673
F          0.03670        0.07890        0.00360
C         -0.00990        1.39040        0.01100
N         -1.18910        1.89600        0.02870
O         -1.26660        3.27880        0.03690
C         -0.14940        4.01970        0.02630
C          1.10530        3.53110        0.00780
C          1.30410        2.09720       -0.00190
O          2.35940        1.49530       -0.01910
H         -0.40560        5.07340        0.03490
H          1.95910        4.19580        0.00010
