20
gdb 6396	2.87305	1.35169	1.086	1.8819	72.1	-0.2647	0.0198	0.2844	1195.7404	0.173982	-386.197093	-386.186999	-386.186055	-386.232932	34.93
C          0.10310        1.48610        0.17590
C         -0.01200       -0.03770        0.09150
C         -1.44870       -0.53890       -0.02890
C         -1.55170       -2.05190       -0.18660
O         -2.13000       -0.13230        1.18940
C         -3.46470        0.05120        1.11960
C         -4.01040        0.48040        2.46180
O         -4.12030       -0.10480        0.11950
H          1.14850        1.79680        0.26150
H         -0.31560        1.96470       -0.71640
H         -0.43620        1.86950        1.04620
H          0.54180       -0.40750       -0.77980
H          0.44800       -0.50050        0.97350
H         -1.95620       -0.04810       -0.86540
H         -1.02880       -2.37210       -1.09320
H         -1.09920       -2.56170        0.67010
H         -2.59700       -2.35690       -0.27000
H         -5.09050        0.60330        2.39200
H         -3.76620       -0.26610        3.22280
H         -3.54740        1.42190        2.77090
