15
gdb 15360	6.33263	0.92093	0.89177	3.4906	62.18	-0.2821	0.0219	0.304	1252.6058	0.117736	-399.780798	-399.772459	-399.771515	-399.814717	28.823
O         -0.04760        1.30330       -0.68430
C          0.07290        0.16740        0.15100
C         -1.26730       -0.50140        0.33940
O         -1.75980       -1.24540       -0.79150
C         -1.50200       -1.95190        0.41630
C         -0.39370       -2.99520        0.39210
C         -0.86740       -4.27940       -0.12570
N         -1.25160       -5.29260       -0.52570
H         -0.40630        0.99970       -1.52610
H          0.81220       -0.54360       -0.24330
H          0.44110        0.53330        1.11590
H         -2.01990        0.14630        0.79180
H         -2.39980       -2.28500        0.93830
H          0.44160       -2.65500       -0.22450
H         -0.01330       -3.15020        1.40890
