17
gdb 15391	4.00381	1.10822	0.93045	1.3345	72.02	-0.249	0.034	0.2831	1247.8336	0.140226	-363.782335	-363.77351	-363.772566	-363.816321	31.253
C          0.07430        1.34790       -0.17200
O          0.14190       -0.05620       -0.10880
C          0.49220       -0.52660        1.17520
C          0.54700       -2.02850        1.11910
N          1.84240       -2.63460        0.80880
C          1.26190       -2.83270        2.15950
C          1.94170       -2.23460        3.27690
C          2.48250       -1.75380        4.23710
H          1.04300        1.81510        0.06550
H         -0.20620        1.61640       -1.19340
H         -0.67980        1.75330        0.52210
H          1.46970       -0.13430        1.49170
H         -0.25580       -0.20570        1.92150
H         -0.34550       -2.48590        0.69570
H          1.72200       -3.48250        0.26070
H          0.82740       -3.80680        2.37530
H          2.97140       -1.32590        5.07690
