18
gdb 7535	5.065	1.11117	1.03454	3.1783	69.11	-0.2471	-0.024	0.2231	1170.6356	0.150005	-384.940273	-384.93099	-384.930046	-384.974755	32.501
C          0.15330        1.41360       -0.40200
C          0.04520       -0.00150        0.10410
O          1.25460       -0.76720        0.19960
C          0.52850       -0.48860        1.41180
C          1.22360        0.41110        2.41110
C         -0.13440       -1.72170        2.01800
C          0.89040       -2.69620        2.56730
O          0.86500       -3.16460        3.67650
H          0.98540        1.95270        0.05370
H          0.30790        1.41030       -1.48600
H         -0.77330        1.96120       -0.19880
H         -0.78450       -0.56200       -0.33460
H          1.75400        1.22630        1.91820
H          0.49880        0.83590        3.11380
H          1.95370       -0.15860        2.99600
H         -0.83010       -1.45230        2.81820
H         -0.69100       -2.24600        1.23070
H          1.69320       -2.96130        1.84480
