12
gdb 4452	3.60408	1.90277	1.25373	4.1263	52.32	-0.1962	0.0461	0.2423	873.6376	0.083364	-451.837298	-451.829277	-451.828333	-451.870731	27.537
N          0.17770        1.46280        0.01720
C          0.00500        0.07220        0.00730
C         -1.05360       -0.74790       -0.05310
O         -2.36720       -0.48750       -0.12820
O         -0.67020       -2.06170       -0.03110
C          0.73700       -2.10900        0.04930
O          1.35800       -3.13490        0.08490
N          1.12440       -0.80660        0.07130
H         -0.16430        1.90880       -0.82610
H         -0.25920        1.90880        0.81550
H         -2.83610       -1.33000       -0.15460
H          2.08370       -0.51270        0.12630
