12
gdb 15486	3.88167	1.88212	1.27768	6.5407	59.15	-0.2635	-0.088	0.1755	865.2604	0.083572	-418.527415	-418.520705	-418.519761	-418.558799	23.58
O         -0.14190       -0.00360        0.00140
C         -0.03020        1.19500        0.00840
C          1.24890        1.93240        0.00090
C          1.38210        3.26380        0.00950
C          2.83510        3.61480       -0.00230
O          3.51960        2.37010       -0.01850
C          2.61740        1.32370       -0.01740
O          2.96250        0.18320       -0.02940
H         -0.92100        1.86340        0.02150
H          0.58820        4.00100        0.02300
H          3.11520        4.20140       -0.88740
H          3.13290        4.18800        0.88570
