13
gdb 21929	3.51703	1.76767	1.18508	3.0578	55.62	-0.2519	0.002	0.254	926.8498	0.095504	-435.720906	-435.713554	-435.71261	-435.75321	26.136
O         -0.04550        1.45380        0.06140
C          0.03040        0.03980       -0.00350
C         -1.36310       -0.49290       -0.00520
C         -2.54110        0.17750        0.04540
O         -3.58340       -0.66950        0.02330
N         -3.09840       -1.97720       -0.04540
C         -1.79470       -1.84970       -0.06110
O         -0.96860       -2.90820       -0.12390
H          0.85010        1.80290        0.06240
H          0.55780       -0.29640       -0.91130
H          0.58600       -0.37570        0.85310
H         -2.77660        1.22790        0.09800
H         -1.51470       -3.70550       -0.15200
