16
gdb 17300	3.10015	2.49737	1.91651	1.0081	63.05	-0.2464	0.0657	0.3121	749.7011	0.130082	-383.67095	-383.664261	-383.663317	-383.70134	26.826
O         -0.04250        1.42490        0.00200
C          0.00190        0.02990       -0.02010
C          0.42930       -0.71690       -1.31930
C         -0.90910       -1.52330       -1.28430
C         -1.34300       -0.75510       -0.00030
C         -0.91330       -1.37050        1.35460
O          0.33130       -2.06150        1.15740
C          0.36790       -0.64480        1.34020
H          0.86350        1.75540        0.01400
H          0.49630       -0.02620       -2.16360
H          1.34440       -1.30850       -1.25440
H         -1.55940       -1.33750       -2.14120
H         -0.79000       -2.59880       -1.14960
H         -2.28820       -0.21380        0.00670
H         -1.53110       -1.71210        2.17760
H          0.98750       -0.25360        2.14190
