16
gdb 8372	5.13315	1.33216	1.2323	4.1902	65.68	-0.2698	0.0112	0.281	1005.7179	0.129508	-383.75566	-383.748144	-383.7472	-383.787468	28.121
C          0.12150        1.58410       -0.26740
C          0.03020        0.09120       -0.04420
C          1.27730       -0.79180       -0.09650
C          0.57340       -0.53880        1.18950
C          1.04440        0.04320        2.51330
C          0.24750       -1.12640        3.10150
O         -0.01570       -1.57110        4.17060
O         -0.14550       -1.60240        1.87230
H          1.03870        1.99490        0.16790
H          0.12940        1.82050       -1.33650
H         -0.72720        2.10790        0.18540
H         -0.87090       -0.38180       -0.42610
H          1.18030       -1.77920       -0.53420
H          2.24050       -0.31520       -0.25340
H          2.11640       -0.00020        2.71450
H          0.65560        1.02770        2.78080
