18
gdb 16310	3.07026	1.92576	1.37629	3.0279	72.64	-0.2365	-0.0053	0.2311	948.2921	0.15335	-347.805564	-347.797654	-347.79671	-347.837966	29.657
C         -0.25710        1.53470       -0.05270
C          0.08700        0.04420        0.08270
C          0.79650       -0.48980       -1.13230
C          0.06520       -0.96090       -2.38800
C          0.97940       -1.92340       -1.71800
C          2.42420       -1.61960       -2.14150
C          2.22980       -0.22380       -1.48890
O          2.99730        0.64520       -1.17720
H          0.65140        2.12140       -0.21430
H         -0.92790        1.70900       -0.90040
H         -0.74960        1.90590        0.85110
H          0.72390       -0.10260        0.96370
H         -0.82550       -0.53990        0.25530
H         -0.99910       -1.10820       -2.22970
H          0.31530       -0.55760       -3.36610
H          0.64150       -2.84620       -1.26510
H          3.18880       -2.18130       -1.59730
H          2.64270       -1.66060       -3.21290
