15
gdb 16328	3.18813	1.94375	1.38736	3.2101	61.89	-0.2426	-0.022	0.2206	883.686	0.118203	-399.759658	-399.752046	-399.751101	-399.792469	27.637
O          0.09280        1.37640        0.56280
C          0.06790        0.11570       -0.08510
C         -1.30150       -0.49160       -0.10160
N         -1.97370       -1.03860        1.12810
C         -1.82810       -1.90600       -0.04450
C         -3.03080       -1.57880       -0.94430
C         -2.44140       -0.14100       -1.03340
O         -2.65980        0.81070       -1.72730
H         -0.49190        1.96390        0.07090
H          0.44170        0.18800       -1.11800
H          0.75980       -0.52920        0.46920
H         -1.21580       -1.24350        1.78150
H         -1.25200       -2.82180       -0.02130
H         -3.01510       -2.05940       -1.92650
H         -4.01310       -1.69070       -0.48170
