14
gdb 10021	3.54062	1.28847	0.98103	3.5342	63.76	-0.2376	-0.0419	0.1956	1119.0381	0.104035	-415.870611	-415.861924	-415.86098	-415.904353	29.638
N         -0.09790        1.42980       -0.15740
C         -0.24130        0.08110       -0.31750
N         -0.88740       -0.63530        0.51600
C         -0.96530       -2.04500        0.27350
C         -1.59540       -2.75750        1.46910
O         -1.78500       -3.94550        1.50870
C         -1.74910       -2.43930       -0.99700
O         -1.97800       -1.68360       -1.90060
H          0.13420        1.97910       -0.96780
H         -0.71820        1.86700        0.50820
H          0.29370       -0.31120       -1.18970
H          0.01540       -2.53850        0.12600
H         -1.88090       -2.06770        2.29050
H         -2.06460       -3.50250       -1.00550
