20
gdb 7581	3.09273	1.56269	1.47119	0.7253	70.25	-0.2511	0.0565	0.3076	992.2453	0.175043	-386.12265	-386.113532	-386.112587	-386.156027	33.726
C          0.01860        1.48690       -0.15080
C         -0.02370       -0.03280        0.06480
C          0.72840       -0.42980        1.34330
C         -1.46620       -0.55150        0.08470
O         -2.12240        0.05480        1.17430
C         -2.19860       -0.52180       -1.28570
O         -2.10670       -1.95340       -1.40960
C         -1.61740       -2.09120       -0.06240
H          1.05310        1.83970       -0.20430
H         -0.47960        1.77980       -1.08090
H         -0.47830        2.00530        0.67360
H          0.46250       -0.52000       -0.79110
H          0.25690        0.02010        2.22110
H          0.74070       -1.51520        1.48770
H          1.76770       -0.09000        1.30000
H         -3.03120       -0.26160        1.20140
H         -3.24030       -0.17410       -1.21570
H         -1.70530       -0.00310       -2.11550
H         -0.70690       -2.69920       -0.01400
H         -2.37090       -2.52180        0.61420
