16
gdb 12033	3.8039	1.73612	1.53274	1.278	69.99	-0.2529	0.0448	0.2977	873.3228	0.128451	-346.530745	-346.523128	-346.522184	-346.562174	29.408
C         -0.03220        1.54890        0.06930
C          0.00420        0.01960        0.00510
C          1.11320       -0.62360       -0.93940
C          1.73940       -1.26680        0.30040
O          2.07530       -0.20650        1.20900
C          0.73210       -0.68290        1.19300
C         -1.31040       -0.55550       -0.22700
C         -2.40050       -1.03520       -0.39610
H          0.96230        1.92670        0.31760
H         -0.34100        1.96690       -0.89330
H         -0.74180        1.88950        0.82920
H          0.68520       -1.34180       -1.63990
H          1.75240        0.08650       -1.46950
H          2.30790       -2.18530        0.38240
H          0.29840       -1.02760        2.12450
H         -3.36380       -1.45390       -0.55210
