16
gdb 10315	2.5141	1.66913	1.13424	1.9829	62.55	-0.2536	-0.0479	0.2057	1048.7719	0.126485	-420.897783	-420.888391	-420.887447	-420.932545	31.773
C         -0.17230        1.45980       -0.16720
C         -0.03480       -0.03650       -0.01510
O         -0.03820       -0.60250        1.05270
C          0.11530       -0.83500       -1.32440
C          0.67150       -2.23020       -1.08030
O          0.82230       -2.83120       -2.35840
C         -1.24970       -0.90780       -2.01620
O         -1.78780        0.02560       -2.55160
H          0.79500        1.87810       -0.47160
H         -0.88470        1.69700       -0.96310
H         -0.47470        1.90740        0.78020
H          0.77020       -0.27330       -2.00060
H          1.62530       -2.16530       -0.53950
H         -0.02480       -2.79150       -0.44140
H          1.09230       -3.74590       -2.23470
H         -1.73430       -1.90550       -1.96450
