17
gdb 21177	3.46721	1.88125	1.24084	3.4429	71.84	-0.1961	0.0416	0.2377	971.4209	0.143765	-360.056019	-360.047854	-360.04691	-360.088821	29.188
C         -0.06150        1.41750        0.03740
N         -0.07640       -0.03630       -0.02420
C          0.60670       -0.62430       -1.08300
C          1.23660       -0.08460       -2.19370
C          1.67180       -1.21180       -2.92260
N          1.35550       -2.35490       -2.33010
N          0.68760       -1.97700       -1.20400
C          0.17030       -2.96910       -0.29360
H          0.95120        1.84530        0.09580
H         -0.54920        1.82220       -0.85440
H         -0.63070        1.74180        0.91160
H          0.13290       -0.46320        0.86880
H          1.36290        0.95770       -2.43280
H          2.20950       -1.23040       -3.85990
H          0.79440       -3.07110        0.60400
H         -0.84730       -2.70520        0.01120
H          0.15850       -3.92310       -0.81980
