15
gdb 12175	3.29707	1.6657	1.25181	3.5057	63.83	-0.2636	-0.0411	0.2225	963.7044	0.117234	-399.804577	-399.79664	-399.795696	-399.837456	27.832
C         -0.23310        1.41980        0.01940
C          0.04770       -0.07580        0.04800
C          0.98690       -0.68890       -1.04040
O          1.92090       -1.10800       -0.01530
C          1.14190       -0.55740        0.98510
N          1.32640       -0.47730        2.21950
C          0.40290       -1.83060       -1.83470
O          0.57400       -2.99420       -1.59360
H          0.68770        1.99220       -0.12790
H         -0.93160        1.67510       -0.78330
H         -0.67450        1.73140        0.96980
H         -0.87670       -0.64710        0.17580
H          1.43570        0.05320       -1.71200
H          2.20640       -0.91180        2.50170
H         -0.24440       -1.48850       -2.67630
