15
gdb 14543	4.68848	1.58056	1.45348	3.8753	66.05	-0.2753	0.0133	0.2886	879.1	0.119146	-362.639324	-362.632162	-362.631218	-362.670426	27.28
O         -0.12420        1.36250       -0.02100
C         -0.06780       -0.03110        0.03890
C          1.02640       -0.61230       -0.71560
N          1.92110       -1.05050       -1.30320
C         -0.46950       -0.81800        1.27380
C         -1.54330       -0.04070        2.04420
C         -2.44150       -0.03980        0.76580
C         -1.35160       -0.81550        0.01560
H          0.63660        1.71960        0.45200
H          0.17610       -1.59370        1.66760
H         -1.97340       -0.62940        2.85600
H         -1.24080        0.93480        2.43260
H         -3.34700       -0.63460        0.89640
H         -2.70390        0.93320        0.34750
H         -1.50830       -1.59020       -0.72480
