16
gdb 21258	3.49061	1.96074	1.27589	2.9766	67.72	-0.2115	0.0399	0.2515	936.3624	0.131349	-379.93153	-379.923482	-379.922538	-379.964836	27.961
C         -0.64370        0.60960        0.57360
O          0.26100        0.89540       -0.48370
C          0.54720       -0.14580       -1.28730
C          0.12870       -1.46300       -1.33820
C          0.83320       -1.98530       -2.44570
N          1.61320       -1.08400       -3.02720
N          1.43060        0.04890       -2.29560
C          2.09000        1.28200       -2.66080
H         -0.76780        1.53760        1.13280
H         -1.61440        0.28330        0.18110
H         -0.24260       -0.16880        1.23370
H         -0.56290       -1.96380       -0.68300
H          0.80140       -2.99240       -2.83590
H          1.44060        1.92080       -3.26990
H          2.37610        1.82890       -1.76000
H          2.97870        1.02330       -3.23630
