20
gdb 14123	3.5832	1.65938	1.39388	1.5391	74.73	-0.229	0.0841	0.313	986.8621	0.176162	-348.970026	-348.961714	-348.96077	-349.002529	31.768
C         -0.11960        1.53860        0.15430
C         -0.02750        0.00870        0.02680
C          0.88970       -0.59630        1.09600
C         -1.40720       -0.58850        0.04670
C         -2.24270       -0.99290        1.22420
C         -1.98650       -1.98810        0.10430
C         -2.79670       -1.56810       -1.11210
O         -2.27630       -0.21390       -1.04090
H          0.86720        1.99760        0.03650
H         -0.78480        1.95190       -0.60840
H         -0.51120        1.82340        1.13720
H          0.39580       -0.22190       -0.96050
H          0.94360       -1.68680        1.01320
H          1.90490       -0.20210        0.99020
H          0.54360       -0.34730        2.10490
H         -1.70780       -1.20760        2.14360
H         -3.22930       -0.55610        1.35680
H         -1.51400       -2.94820        0.26320
H         -2.48290       -2.05260       -2.04420
H         -3.89030       -1.59850       -1.03130
