16
gdb 10693	2.90166	1.91332	1.33977	1.2576	66.69	-0.2627	0.0164	0.2791	931.2122	0.127583	-383.682115	-383.673657	-383.672713	-383.714692	31.653
C         -0.27680        1.54380       -0.08320
C          0.09060        0.06570        0.06680
O         -1.04130       -0.72010        0.38670
C          0.76310       -0.48220       -1.20340
C          0.58490       -1.90070       -1.56640
O         -0.19130       -0.88370       -2.21160
C          1.92930        0.22340       -1.67440
C          2.91210        0.82110       -2.02360
H          0.61130        2.15950       -0.24690
H         -0.95070        1.68390       -0.93560
H         -0.78530        1.88560        0.82130
H          0.79050       -0.05950        0.90100
H         -1.58910       -0.73420       -0.40980
H          1.33040       -2.37920       -2.19730
H          0.03260       -2.54130       -0.88460
H          3.77820        1.34570       -2.34460
