17
gdb 19832	3.33123	2.5947	1.78189	1.466	72.68	-0.2262	0.017	0.2432	770.8936	0.145825	-326.69974	-326.693689	-326.692745	-326.729519	25.356
C         -0.01870        1.54820       -0.01090
C          1.30350        0.79600       -0.00510
C          2.16330        0.75680        1.19510
C          1.84070        0.11130        2.32230
C          0.57610       -0.64060        2.46940
N         -0.69450        0.13890        2.50120
C         -0.37520       -0.67130        1.31650
C         -0.02410        0.04820        0.04350
H         -0.29970        2.06500        0.89850
H         -0.31420        2.02730       -0.93790
H          1.83670        0.79250       -0.95160
H          3.11700        1.27490        1.13070
H          2.52550        0.11170        3.16550
H          0.61790       -1.51450        3.11550
H         -1.37530       -0.35010        3.07760
H         -0.93630       -1.59130        1.17440
H         -0.30630       -0.48200       -0.85970
