13
gdb 4512	3.64953	1.88113	1.25154	1.2754	57.12	-0.1865	0.0395	0.226	894.3733	0.097292	-431.948407	-431.94115	-431.940206	-431.979466	27.594
N         -0.00550        1.41250        0.06550
C         -0.07390        0.03360       -0.00070
C         -1.10920       -0.84250       -0.04080
N         -2.47060       -0.58360       -0.08750
N         -0.63830       -2.15260       -0.10850
C          0.64910       -2.00050       -0.11520
O          1.57220       -2.96090       -0.16190
O          1.11340       -0.76130       -0.06520
H          0.49710        1.76560        0.87310
H          0.36190        1.85610       -0.77040
H         -2.70160        0.34220        0.24680
H         -3.01630       -1.29800        0.37520
H          1.09240       -3.79810       -0.20260
