20
gdb 12509	3.21349	1.79327	1.29009	0.1537	82.23	-0.2253	0.0261	0.2514	1014.9908	0.178316	-311.885869	-311.877899	-311.876955	-311.918138	30.731
C         -0.55800        1.45730        0.22370
C          0.06620        0.11660       -0.05660
C         -0.15190       -0.54370       -1.19470
C          0.44620       -1.88780       -1.52290
C         -0.07630       -3.02080       -0.62340
C          0.27520       -2.89860        0.83620
C          0.72620       -1.83950        1.51000
C          0.98240       -0.42600        1.02890
H          0.20910        2.21880        0.41860
H         -1.17240        1.80190       -0.61250
H         -1.19030        1.42020        1.12060
H         -0.81450       -0.10160       -1.93590
H          0.23740       -2.14070       -2.56740
H          1.54050       -1.84950       -1.42910
H         -1.16840       -3.09880       -0.73010
H          0.31870       -3.97900       -0.98900
H          0.14730       -3.82030        1.40280
H          0.95490       -1.99070        2.56360
H          2.02900       -0.34280        0.69090
H          0.92360        0.23590        1.90020
