18
gdb 19831	3.31439	2.49159	1.74098	0.4267	76.05	-0.2213	0.0253	0.2465	798.9679	0.157115	-310.657003	-310.650763	-310.649819	-310.686955	26.29
C          0.02890        1.57340       -0.07950
C          1.31800        0.76750       -0.03060
C          2.16150        0.76410        1.18400
C          1.82670        0.13410        2.31680
C          0.57390       -0.63270        2.48730
C         -0.76430        0.08060        2.60470
C         -0.41050       -0.63290        1.32870
C         -0.03360        0.07640        0.05320
H         -0.20920        2.18590        0.78250
H         -0.25720        2.00910       -1.03090
H          1.86020        0.69880       -0.96970
H          3.10740        1.29690        1.12790
H          2.50520        0.16360        3.16570
H          0.66700       -1.54660        3.06770
H         -1.51990       -0.36700        3.24160
H         -0.75210        1.16440        2.61930
H         -0.93130       -1.56970        1.16120
H         -0.33960       -0.45630       -0.84080
