16
gdb 295	5.10608	3.28695	2.96998	1.636	56.17	-0.2392	0.0812	0.3205	560.0105	0.141947	-271.626697	-271.619919	-271.618974	-271.656931	24.691
C         -0.22630        1.59600       -0.03560
C          0.00750        0.09120       -0.04980
C         -1.25750       -0.69090        0.27750
C          0.83460       -0.44610       -1.25040
C          1.90120       -0.78250       -0.19280
O          1.08230       -0.26710        0.87330
H          0.70070        2.13440       -0.25270
H         -0.97600        1.88050       -0.78220
H         -0.58380        1.91610        0.94850
H         -2.04330       -0.48590       -0.45810
H         -1.05840       -1.76630        0.28120
H         -1.63270       -0.41040        1.26710
H          0.39640       -1.30250       -1.76650
H          1.12220        0.30680       -1.98670
H          2.12290       -1.84910       -0.06190
H          2.84960       -0.23800       -0.28240
