17
gdb 4778	5.64006	1.27039	1.12226	1.046	71.27	-0.2268	0.0137	0.2405	1107.1733	0.14229	-363.915636	-363.907486	-363.906542	-363.948859	29.031
C          0.05850        1.48500        0.24890
C         -0.04750       -0.00910       -0.10150
C         -1.45270       -0.50300       -0.14190
N         -2.12080       -0.96130       -1.15340
C         -3.38470       -1.26930       -0.64680
C         -4.46290       -1.83310       -1.50850
C         -3.39710       -0.96680        0.67250
O         -2.16520       -0.47350        1.01480
H          1.10640        1.79710        0.27660
H         -0.46110        2.09780       -0.49350
H         -0.38460        1.68880        1.22750
H          0.38720       -0.20780       -1.08390
H          0.51800       -0.59680        0.63210
H         -4.15040       -2.78380       -1.95350
H         -5.37630       -2.00630       -0.93360
H         -4.69910       -1.15320       -2.33400
H         -4.12700       -1.03050        1.46100
