22
gdb 14998	4.09026	1.28738	1.05365	1.3563	78.24	-0.2431	0.0877	0.3309	1185.0079	0.202202	-350.224505	-350.216242	-350.215298	-350.257062	31.861
C          0.09700        1.56990        0.04060
C          0.00740        0.04050        0.00880
C         -1.42320       -0.51910       -0.02060
C         -2.19960       -0.14310       -1.29500
C         -3.57550       -0.81480       -1.31390
O         -3.48350       -2.22280       -1.18760
C         -2.85550       -2.60470        0.02390
C         -1.43340       -2.05030        0.12850
H          1.13800        1.89910        0.11730
H         -0.32320        2.02420       -0.86210
H         -0.44440        1.97990        0.90100
H          0.55730       -0.34200       -0.86210
H          0.52010       -0.36570        0.89070
H         -1.96870       -0.09700        0.83890
H         -2.32860        0.94190       -1.37520
H         -1.63250       -0.47000       -2.17680
H         -4.19990       -0.40420       -0.49990
H         -4.09440       -0.62660       -2.25860
H         -3.45500       -2.25710        0.88450
H         -2.85690       -3.69890        0.03720
H         -0.81950       -2.49900       -0.66370
H         -0.99180       -2.34770        1.08780
