15
gdb 21034	3.91161	1.81928	1.26134	1.8818	63.71	-0.23	0.0336	0.2636	938.5634	0.119609	-396.023521	-396.015516	-396.014571	-396.056208	28.052
C         -0.06180        1.42630       -0.07460
N          0.00070       -0.01490       -0.00460
N         -0.01720       -0.79450       -1.13540
C          0.05650       -2.01950       -0.64630
C          0.06800       -3.22870       -1.51800
N          0.12130       -2.08970        0.72340
C          0.08320       -0.82170        1.06610
O          0.11810       -0.32100        2.30830
H          0.78740        1.81480       -0.64320
H         -0.98850        1.74210       -0.56140
H         -0.03130        1.82280        0.94090
H          0.98230       -3.81040       -1.36270
H         -0.77660       -3.88440       -1.28320
H          0.00810       -2.93360       -2.56680
H          0.17640       -1.07660        2.90640
