11
gdb 831	5.21686	2.75151	2.72562	2.0586	35.84	-0.3543	0.0922	0.4465	529.7582	0.080927	-416.814878	-416.80872	-416.807775	-416.84483	21.285
C          0.02650        1.55970        0.01010
C          0.00180        0.03060        0.00220
C         -1.40500       -0.52780        0.01270
F         -2.10880       -0.12630       -1.05980
F         -1.39820       -1.87110        0.00550
F         -2.08820       -0.13780        1.10250
H          1.05700        1.92300        0.00220
H         -0.48480        1.96250       -0.86820
H         -0.46800        1.95310        0.90210
H          0.49890       -0.37000       -0.88650
H          0.51570       -0.37930        0.87700
