17
gdb 5795	5.89961	1.44587	1.2805	2.0297	75.05	-0.201	0.0444	0.2455	972.0397	0.144278	-326.740004	-326.733072	-326.732128	-326.771854	26.888
C         -0.13790        1.43080       -0.16780
C          1.27800        0.95750        0.08200
C          0.14070       -0.02790        0.07530
N         -0.29000       -0.68200        1.27750
C         -0.33730       -0.14950        2.54440
C         -0.81050       -1.11640        3.40250
C         -1.06100       -2.28190        2.63060
C         -0.73130       -1.98280        1.32880
H         -0.63360        1.98000        0.62450
H         -0.41880        1.73770       -1.16910
H          1.97750        0.93680       -0.74620
H          1.72620        1.19100        1.04110
H          0.06680       -0.69700       -0.77370
H         -0.03310        0.86700        2.73380
H         -0.95860       -0.99600        4.46470
H         -1.43830       -3.22870        2.98480
H         -0.77040       -2.57900        0.43090
