17
gdb 7680	4.03838	1.61745	1.52228	3.9149	68.97	-0.2417	0.0097	0.2513	903.8798	0.141698	-363.863513	-363.855838	-363.854893	-363.894965	29.558
C          0.03830        1.51570        0.09220
C          0.07290        0.00170        0.03630
C         -1.18620       -0.62070       -0.54410
C          1.33490       -0.77620       -0.22630
N          2.53180       -0.17220        0.36050
C          1.96660       -0.15360        1.65220
O          2.37530        0.27870        2.69240
C          0.70580       -0.84730        1.15970
H          0.96160        1.94310        0.48930
H         -0.12500        1.93060       -0.90910
H         -0.78370        1.85620        0.73070
H         -1.36930       -0.24340       -1.55630
H         -1.11090       -1.71130       -0.59790
H         -2.06110       -0.37420        0.06670
H          1.42640       -1.56870       -0.95890
H          3.03030        0.61570       -0.03790
H          0.17230       -1.65650        1.63880
