15
gdb 6077	5.11121	1.04877	0.9006	2.2868	58.93	-0.2456	0.0201	0.2657	1216.0295	0.118951	-433.194491	-433.185566	-433.184622	-433.229089	31.296
N         -0.11370        1.23100       -0.16600
C         -0.02380       -0.12320       -0.10540
O          0.98310       -0.73660       -0.41160
C         -1.27860       -0.82760        0.41350
N         -1.05210       -2.25200        0.41720
C         -2.07540       -3.09110        0.02880
N         -1.67110       -4.39990       -0.18930
O         -3.22570       -2.71970       -0.12400
H          0.66440        1.74650       -0.54310
H         -0.97860        1.71540        0.00080
H         -1.50300       -0.44550        1.41980
H         -2.14640       -0.59140       -0.21340
H         -0.10260       -2.48750        0.15090
H         -0.87410       -4.73670        0.32920
H         -2.44370       -5.04630       -0.23260
