22
gdb 7836	3.4847	1.28919	1.10325	1.0611	79.2	-0.2291	0.0843	0.3134	1198.2986	0.197819	-350.193827	-350.184145	-350.183201	-350.228243	35.802
C          0.38340        1.41790        0.40670
C          0.04340       -0.02800        0.03850
C          0.70040       -0.46280       -1.26620
O          0.46990       -0.96540        1.02810
C         -0.24430       -0.93000        2.22560
C          0.21130       -1.86760        3.29980
C          0.38000       -0.37010        3.48800
C          1.76790        0.22890        3.47080
H          1.46660        1.54630        0.49780
H          0.01950        2.10030       -0.36840
H         -0.07930        1.70620        1.35420
H         -1.05180       -0.11390       -0.06620
H          1.79000       -0.39790       -1.18190
H          0.43640       -1.49720       -1.50060
H          0.37910        0.17800       -2.09260
H         -1.31860       -0.79560        2.09080
H         -0.53120       -2.40450        3.87980
H          1.11210       -2.43290        3.08330
H         -0.31410        0.10120        4.18020
H          2.36940       -0.22000        2.67590
H          1.73550        1.30940        3.29250
H          2.28150        0.06320        4.42410
