18
gdb 13263	6.29305	0.87968	0.80822	1.4707	77.24	-0.2346	0.0572	0.2918	1442.5426	0.152384	-347.762785	-347.753675	-347.752731	-347.798963	30.781
C          0.01040        1.47210        0.07590
C          0.03230        0.01640        0.07620
C          0.05190       -1.18710        0.08460
C          0.04640       -2.64510        0.08150
C         -1.32840       -3.24240       -0.22450
C         -1.48040       -4.77400       -0.09230
C         -2.58620       -4.42700        0.92380
O         -2.28540       -3.01910        0.83530
H          0.41790        1.87960       -0.85610
H         -1.01120        1.85300        0.18490
H          0.60390        1.87940        0.90200
H          0.75370       -3.02460       -0.67000
H          0.38200       -3.03050        1.05300
H         -1.69990       -2.83610       -1.17480
H         -1.79210       -5.30930       -0.99010
H         -0.60780       -5.27050        0.33860
H         -3.60760       -4.64790        0.58770
H         -2.45910       -4.81130        1.94240
