20
gdb 20087	3.23748	1.45988	1.22561	1.3851	75.61	-0.2372	0.0728	0.31	1080.4274	0.176273	-348.971401	-348.962595	-348.961651	-349.004966	32.811
C         -0.06130        1.53810       -0.03270
C          0.06060        0.03210        0.05570
C          1.39430       -0.65650       -0.15760
O          2.55240        0.11720       -0.30840
C          0.77260       -0.65740        1.21390
C          1.39510        0.10110        2.34410
C          0.65610        0.24920        3.65280
C          1.87120       -0.64140        3.56910
H          0.88070        2.03350        0.21290
H         -0.34420        1.84660       -1.04590
H         -0.82750        1.91610        0.65210
H         -0.80100       -0.50520       -0.33410
H          1.40740       -1.59340       -0.71510
H          2.53620        0.50750       -1.18850
H          0.33450       -1.60490        1.52000
H          2.00990        0.93990        2.04090
H          0.73830        1.18790        4.18990
H         -0.31480       -0.22760        3.74100
H          1.71580       -1.71510        3.60270
H          2.78810       -0.31300        4.04580
