18
gdb 9070	4.80539	0.8432	0.75496	2.3246	75.51	-0.2519	-0.0249	0.227	1461.8673	0.150318	-347.784626	-347.775065	-347.77412	-347.819775	33.402
C         -0.18800        1.53800        0.07550
C          0.04660        0.01400        0.04780
C          0.74600       -0.46410       -1.24860
C         -0.08080       -0.22920       -2.52420
C          0.55120       -0.90440       -3.72140
O          0.86010       -0.35070       -4.74410
C          0.81940       -0.40890        1.21500
C          1.47540       -0.74730        2.16400
H          0.76200        2.07410       -0.01210
H         -0.83930        1.85040       -0.74530
H         -0.65840        1.83570        1.01570
H         -0.93420       -0.48140        0.09600
H          1.71510        0.04070       -1.33600
H          0.96140       -1.53420       -1.14840
H         -1.08040       -0.67020       -2.39100
H         -0.20340        0.83170       -2.75480
H          0.72520       -1.99880       -3.58770
H          2.04460       -1.05060        3.00760
