15
gdb 20568	4.63113	1.43672	1.3334	4.2958	62.44	-0.2597	-0.0087	0.251	943.6594	0.119977	-395.97931	-395.971806	-395.970861	-396.011892	27.231
C          0.03250        1.53220       -0.15280
C          0.06270        0.00780        0.02460
O          0.70520       -0.35420        1.23860
C         -1.32020       -0.58250       -0.02840
C         -2.00600       -1.24700       -1.01590
N         -3.20920       -1.51650       -0.45230
N         -3.27900       -1.06110        0.80930
N         -2.13640       -0.49260        1.06320
H          1.04620        1.93170       -0.06360
H         -0.37290        1.80900       -1.13190
H         -0.59550        1.98900        0.61840
H          0.66720       -0.43310       -0.77650
H          0.04920       -0.24880        1.93900
H         -1.75240       -1.54100       -2.02020
H         -4.00080       -2.00080       -0.84500
