20
gdb 8309	4.84314	0.9481	0.9012	0.9558	71.96	-0.2428	0.0809	0.3237	1351.3268	0.175926	-386.125516	-386.116396	-386.115451	-386.159961	32.718
C          0.48130        1.47770        0.22940
C          0.06350        0.04480       -0.02590
C          0.56110       -0.66570       -1.30460
C          1.11050       -1.72950       -0.33190
C          2.58510       -2.07950       -0.38950
C          3.03410       -2.90870        0.80740
O          4.41920       -3.18350        0.65110
O          0.77440       -0.90170        0.81110
H          1.55680        1.60280        0.07010
H         -0.05430        2.15740       -0.44280
H          0.25120        1.76590        1.26010
H         -1.02140       -0.06270        0.12130
H         -0.19830       -0.99180       -2.01660
H          1.34290       -0.11440       -1.83400
H          0.50470       -2.64900       -0.32080
H          2.78680       -2.63890       -1.31210
H          3.18080       -1.16040       -0.42740
H          2.83430       -2.34590        1.73050
H          2.44650       -3.84100        0.85540
H          4.72340       -3.63980        1.44090
