12
gdb 12960	2.76605	2.27718	1.70062	3.0986	50.51	-0.2597	-0.0137	0.246	766.5337	0.082198	-455.586416	-455.579454	-455.57851	-455.617424	25.917
O          0.02170        1.39030       -0.01920
C         -0.07210        0.01370       -0.01660
C         -0.47880       -0.78030        1.16700
O         -1.45970        0.01040        1.89520
C         -2.39000       -0.13660        0.84810
O         -3.52800        0.18780        0.85180
C         -1.39020       -0.81270       -0.05920
O         -1.64070       -1.81680       -0.95280
H         -0.39360        1.71140        0.79250
H          0.67980       -0.44560       -0.65460
H          0.03390       -1.56150        1.71110
H         -1.72410       -1.43630       -1.83480
