19
gdb 17381	3.96523	1.47817	1.23839	1.7079	70.42	-0.2291	0.0637	0.2928	1023.4186	0.165312	-365.010549	-365.002407	-365.001463	-365.043072	30.808
C          0.04630        1.52730       -0.05030
C          0.05690        0.00470        0.09080
O          0.69950       -0.40620        1.29650
C         -1.34370       -0.59630        0.00030
C         -2.13970       -0.59420       -1.33640
N         -2.38970       -2.07950       -1.26320
C         -1.05290       -2.69580       -1.31480
C         -1.49230       -2.11680       -0.03120
H          1.06170        1.92350        0.03420
H         -0.36820        1.83590       -1.01580
H         -0.56700        1.98550        0.73620
H          0.68200       -0.42130       -0.70310
H          0.21850       -0.01190        2.03290
H         -1.95970       -0.16920        0.80120
H         -3.08240       -0.04590       -1.29730
H         -1.59030       -0.29130       -2.23570
H         -1.08870       -3.77680       -1.40830
H         -0.27290       -2.21910       -1.90530
H         -1.73320       -2.73900        0.82430
