12
gdb 2819	4.50953	1.96378	1.49224	2.9302	57.79	-0.2516	-0.0337	0.2179	777.1975	0.088338	-323.315925	-323.309051	-323.308106	-323.347011	24.4
O         -0.33060        0.36700        0.76860
C          0.25010        0.77180       -0.20600
C          1.36630        1.76090       -0.14190
N          2.31490        1.71250       -1.26510
C          1.44910        2.88980       -1.14560
C          0.45610        3.10880       -2.16250
C         -0.37630        3.33300       -2.99950
H          0.00180        0.43690       -1.23420
H          1.72330        1.97790        0.86170
H          3.25370        1.92960       -0.94120
H          1.89070        3.80120       -0.74670
H         -1.11140        3.52000       -3.74310
