16
gdb 459	6.71122	3.17565	2.34459	0.1489	61.16	-0.2335	0.0313	0.2648	587.2379	0.144419	-234.516241	-234.51027	-234.509326	-234.545523	22.613
C         -0.47110        1.43990       -0.01390
C          0.16450        0.05100        0.01440
C          1.13620       -0.23700       -1.16450
C          2.18770       -1.12560       -0.54410
C          2.11180       -1.13330        0.78580
C          0.99600       -0.25120        1.29270
H          0.29590        2.22180        0.03440
H         -1.04850        1.59730       -0.93140
H         -1.14930        1.58710        0.83380
H         -0.63480       -0.69870       -0.03560
H          0.62760       -0.69880       -2.01890
H          1.58950        0.69120       -1.54540
H          2.93080       -1.65320       -1.13230
H          2.78350       -1.66820        1.44860
H          1.40230        0.67220        1.73350
H          0.39370       -0.72250        2.07830
