17
gdb 10317	2.49063	1.72169	1.09549	1.4946	65.84	-0.2544	-0.0466	0.2078	1079.8522	0.140261	-401.050747	-401.041684	-401.04074	-401.084964	32.04
C         -0.23450        1.55140        0.11530
C          0.06030        0.04830        0.11850
C          0.72780       -0.43510       -1.17200
C          2.17400        0.02430       -1.28700
O          2.88580       -0.17570       -2.24290
C          0.61420       -1.97730       -1.34630
N          1.19190       -2.45030       -2.48260
O          0.00710       -2.66590       -0.55300
H          0.67340        2.15310       -0.00720
H         -0.91550        1.81720       -0.70100
H         -0.70500        1.85750        1.05410
H          0.70190       -0.21050        0.97010
H         -0.85910       -0.52300        0.26070
H          0.21480       -0.00860       -2.04640
H          2.56540        0.56900       -0.40090
H          1.86560       -1.87320       -2.96640
H          1.24320       -3.45160       -2.58610
