17
gdb 7382	3.37697	1.35845	1.02682	4.2292	61.74	-0.2581	0.0228	0.281	1128.6775	0.140996	-438.160511	-438.151487	-438.150543	-438.194463	32.139
C          0.74230        1.26420       -0.04420
O          0.87400       -0.12920       -0.23090
C         -0.11410       -0.67130       -1.09150
C          0.11140       -2.18290       -1.21950
O         -0.99820       -2.75580       -1.85130
C          1.37390       -2.54020       -2.02810
N          2.53070       -1.98770       -1.60270
O          1.28070       -3.30830       -2.97420
H          0.84720        1.81240       -0.99250
H         -0.23340        1.51660        0.39570
H          1.53300        1.57910        0.64040
H         -1.11950       -0.50840       -0.67750
H         -0.07720       -0.19410       -2.08360
H          0.24150       -2.58440       -0.20080
H         -0.61370       -3.27840       -2.57860
H          2.49440       -1.23720       -0.92770
H          3.36470       -2.14440       -2.14520
