15
gdb 12258	3.40761	1.59797	1.23003	0.6288	58.55	-0.2675	0.005	0.2725	962.6874	0.118012	-436.91918	-436.91098	-436.910036	-436.952299	28.975
O         -0.01770        1.30030       -0.39140
C          0.03120       -0.08830       -0.12500
C         -1.32860       -0.60140        0.30340
O         -2.30470       -0.43090       -0.80060
C         -2.44200       -1.79340       -0.93720
N         -3.02850       -2.49750       -1.79140
C         -1.57660       -2.12880        0.26350
O         -0.44710       -2.92860        0.02610
H         -0.67160        1.42770       -1.08830
H          0.38640       -0.66560       -0.98890
H          0.74850       -0.23540        0.68860
H         -1.69360       -0.07680        1.18910
H         -3.48080       -1.93490       -2.51360
H         -2.15810       -2.49130        1.12130
H         -0.71210       -3.62070       -0.59080
