17
gdb 18676	3.09886	2.26476	1.50808	2.9248	68.52	-0.2323	-0.0186	0.2137	849.7006	0.144162	-363.862701	-363.855896	-363.854951	-363.893699	26.524
O          0.02640       -0.02380       -0.24500
C          0.00430        1.17180       -0.05480
C         -1.28480        1.96440        0.10010
C         -1.18850        3.25110       -0.73750
C         -0.04470        4.13900       -0.24270
N          1.25690        3.44650       -0.12640
C          1.57700        2.83650        1.14460
C          1.26940        1.97310       -0.04370
H         -2.11270        1.32110       -0.20660
H         -1.43870        2.21880        1.15750
H         -1.02040        2.98540       -1.78830
H         -2.12880        3.81150       -0.70130
H          0.09600        4.97870       -0.93170
H         -0.30980        4.56920        0.73180
H          2.60830        2.92230        1.47720
H          0.83790        2.87880        1.94390
H          2.09370        1.48450       -0.55610
