17
gdb 3445	4.37654	2.72342	2.0338	1.4629	62.63	-0.2268	0.0871	0.3139	691.3805	0.149842	-309.708282	-309.701884	-309.700939	-309.738208	25.026
C         -0.01040        1.56160       -0.01000
C          0.03360        0.03410        0.04370
C          0.79780       -0.59570       -1.14790
O          1.35210       -1.82820       -0.69460
C          1.53190       -1.73240        0.69570
C          2.27070       -0.54080        1.24950
C          0.74850       -0.57730        1.24340
H          0.99880        1.98500        0.03090
H         -0.48530        1.91270       -0.93280
H         -0.57860        1.97100        0.83100
H         -0.99400       -0.35150        0.04730
H          0.15850       -0.81050       -2.00890
H          1.59630        0.08280       -1.48560
H          1.60310       -2.70700        1.16370
H          2.76180       -0.66250        2.20900
H          2.79370        0.11890        0.56510
H          0.22050       -0.63710        2.18820
