16
gdb 10415	2.71752	1.97218	1.43361	2.3922	65.25	-0.2418	0.0151	0.2569	912.0184	0.130158	-379.889484	-379.881316	-379.880372	-379.922175	29.052
C          0.03610        1.41820       -0.03910
O         -0.00340        0.00640        0.10950
C         -1.27890       -0.56930        0.03520
C         -1.89650       -0.67250       -1.40110
N         -1.41980       -2.06990       -1.48620
C         -1.15410       -2.11680       -0.03130
C         -2.17870       -0.03920        1.07130
N         -2.88900        0.38250        1.88010
H          1.08760        1.70250        0.02420
H         -0.36170        1.73740       -1.01160
H         -0.52490        1.92310        0.75790
H         -2.98550       -0.54320       -1.39780
H         -1.45620        0.00000       -2.14430
H         -2.11100       -2.73340       -1.81370
H         -0.15840       -2.47990        0.23910
H         -1.91210       -2.62840        0.57290
