19
gdb 11411	4.01204	1.33841	1.05749	3.9766	72.45	-0.2356	0.0378	0.2734	1136.644	0.166949	-365.124019	-365.115866	-365.114922	-365.156815	30.38
C          0.06420        1.56950       -0.01750
C          0.01760        0.03880       -0.04380
C         -1.39280       -0.54510        0.05900
C         -1.43550       -2.09130       -0.01260
C         -2.64250       -2.48640        0.85070
C         -2.81470       -1.31410        1.82250
O         -3.51420       -1.27030        2.81000
N         -2.02980       -0.29450        1.34610
H          1.08820        1.93310       -0.14390
H         -0.54340        1.99990       -0.82130
H         -0.30500        1.97070        0.93270
H          0.46190       -0.32330       -0.97980
H          0.62410       -0.37000        0.77370
H         -2.00350       -0.11990       -0.75550
H         -1.49500       -2.44640       -1.04370
H         -0.51400       -2.49150        0.42400
H         -3.56370       -2.56620        0.26170
H         -2.52400       -3.42480        1.39520
H         -2.12740        0.62770        1.74100
