15
gdb 9799	3.06808	1.6617	1.41945	4.3522	61.16	-0.2865	0.0127	0.2992	918.4259	0.117151	-399.783721	-399.775367	-399.774423	-399.816634	30.296
O         -0.07600        1.36870        0.09170
C          0.03460       -0.03830        0.02670
C          0.70550       -0.45750       -1.22600
N          1.23400       -0.77560       -2.20290
C          0.76700       -0.59790        1.24440
O          1.96710        0.08440        1.49250
C         -0.01840       -1.13260        2.40980
C          0.75840       -2.07060        1.50610
H          0.82660        1.71220        0.08400
H         -0.98840       -0.42730        0.00380
H          1.76850        0.81860        2.08400
H          0.38700       -0.94770        3.39860
H         -1.10170       -1.12950        2.35500
H          0.21010       -2.71460        0.82690
H          1.67940       -2.49170        1.89070
