16
gdb 15402	4.59898	1.13182	1.0116	2.854	66.63	-0.2652	0.0033	0.2685	1138.6831	0.130304	-379.893637	-379.88546	-379.884516	-379.926887	29.144
O          0.32990        1.26500       -0.34290
C          0.08600       -0.08000        0.00820
C         -1.39800       -0.33770        0.25910
N         -2.13110       -0.00250       -0.96730
C         -2.46970       -1.08200       -1.87580
C         -3.54000       -0.38950       -1.08220
C         -4.19400       -1.11020       -0.01590
N         -4.72900       -1.66380        0.84740
H         -0.33450        1.49090       -1.00570
H          0.45020       -0.77460       -0.76830
H          0.65230       -0.28570        0.92220
H         -1.56460       -1.37650        0.58280
H         -1.75430        0.32840        1.05140
H         -2.38380       -0.86970       -2.93720
H         -2.22320       -2.09980       -1.57960
H         -4.17680        0.34360       -1.56970
