14
gdb 2424	4.52509	3.36889	2.51927	1.046	57.02	-0.2359	0.0623	0.2982	578.7199	0.113308	-324.462733	-324.457057	-324.456113	-324.491824	22.346
C          0.02090        1.45060       -0.07210
C          0.00970       -0.03990       -0.01780
O          0.55540       -0.82190       -1.12840
C          0.11050       -1.83860       -0.18830
C          0.51990       -1.02870        1.08300
N         -0.82910       -1.07760        1.73620
C         -1.15390       -1.04560        0.27250
H          1.04500        1.82590       -0.15860
H         -0.55390        1.80990       -0.93100
H         -0.42540        1.84910        0.84360
H          0.24500       -2.89050       -0.44400
H          1.46400       -1.02040        1.62900
H         -1.00280       -2.01220        2.11440
H         -2.16770       -1.05720       -0.12960
