10
gdb 2607	12.30541	1.01248	0.94092	3.5663	67.34	-0.2648	-0.0359	0.2289	1108.4508	0.065207	-284.993731	-284.986669	-284.985725	-285.025025	24.221
C          0.01330       -3.78420       -0.01840
C          0.01940       -2.57750       -0.01200
C          0.02400       -1.21680       -0.00470
C          0.02970       -0.00900        0.00170
C          0.01500        1.44880        0.00970
C          1.35980        2.04090        0.00000
N          2.40910        2.52200       -0.00740
H          0.01170       -4.84630       -0.02410
H         -0.53530        1.82890       -0.86120
H         -0.51850        1.81950        0.89500
