9
gdb 3814	9.74995	2.03255	1.68192	3.8693	52.49	-0.292	-0.0764	0.2156	651.5496	0.056645	-338.234966	-338.229774	-338.22883	-338.264057	18.212
N          0.07890       -1.13760       -0.00440
C          0.01110        0.01750        0.00260
C         -0.09710        1.42880        0.01180
C         -1.17740        2.26010        0.03110
C         -0.58730        3.54910        0.02980
N          0.72310        3.49120        0.01220
O          1.04570        2.14940        0.00050
H         -2.21910        1.98910        0.04370
H         -1.07230        4.51450        0.04150
