11
gdb 1018	9.45643	1.98007	1.63725	4.1333	61.03	-0.2181	0.005	0.2231	696.2961	0.080033	-302.303791	-302.298031	-302.297086	-302.333127	21.6
C          0.04140       -1.18890       -0.00420
C          0.01310        0.01450        0.00270
C         -0.03360        1.42950        0.01090
C         -1.15870        2.22540        0.03050
N         -0.69320        3.51510        0.03110
C          0.67170        3.45500        0.01220
N          1.10600        2.22090       -0.00030
H          0.07450       -2.24980       -0.01040
H         -2.20850        1.98750        0.04350
H         -1.25730        4.34830        0.04330
H          1.28650        4.34260        0.00870
