12
gdb 20458	6.6061	1.43948	1.28804	3.7589	56.43	-0.277	-0.0723	0.2047	890.3891	0.084555	-410.749908	-410.743584	-410.74264	-410.78161	22.263
C          0.32250        1.57410        0.13440
N          1.18400        0.46520       -0.27600
C         -0.21690        0.18630        0.10780
C         -0.42620       -0.59330        1.33880
N          0.12060       -0.36930        2.50050
O         -0.37320       -1.33910        3.30310
N         -1.24110       -2.13820        2.56580
N         -1.27170       -1.69030        1.39220
H          0.57850        2.01520        1.09260
H         -0.05080        2.26850       -0.61350
H          1.26740        0.43180       -1.28900
H         -0.92410       -0.07240       -0.67390
