22
gdb 12962	2.1738	2.09161	1.69436	0.2278	82.25	-0.2384	0.0842	0.3226	978.876	0.199627	-313.05229	-313.043399	-313.042455	-313.084843	34.248
C          0.13110        1.63540       -0.36950
C          0.24500        0.13430       -0.18320
C          1.48040       -0.69390       -0.42110
C          2.73460        0.00930        0.11370
C          2.11890       -0.02390        1.55310
C          2.07400        1.22470        2.42970
C          0.82840       -0.64190        0.97570
C          0.03110       -1.68550        1.71020
H          1.06830        2.16290       -0.18140
H         -0.16530        1.86340       -1.39990
H         -0.62940        2.06330        0.29360
H         -0.64140       -0.38190       -0.55250
H          1.48930       -1.51330       -1.13180
H          3.64260       -0.59170        0.02900
H          2.94480        0.99910       -0.30590
H          2.63250       -0.81290        2.11580
H          1.58830        2.06890        1.93500
H          1.52600        1.02690        3.35820
H          3.08640        1.53920        2.70860
H         -0.54450       -1.24420        2.53390
H         -0.68250       -2.18510        1.04620
H          0.68200       -2.45600        2.14110
