14
gdb 20951	7.81782	1.16858	1.02975	4.2179	61.95	-0.2426	-0.0227	0.2199	1093.1478	0.105657	-415.833772	-415.826059	-415.825114	-415.866566	26.66
C         -0.00540        1.49500        0.03400
C         -0.01240       -0.01850       -0.02250
O          0.68620       -0.49540        1.15350
C          0.79900       -1.80170        1.30540
C          1.41330       -2.48810        2.32970
N          1.26510       -3.80830        2.03640
N          0.64750       -4.02010        0.98000
O          0.29630       -2.63510        0.42570
H          1.01800        1.87950        0.03560
H         -0.52510        1.89650       -0.84050
H         -0.51300        1.85320        0.93350
H         -1.02890       -0.42460       -0.01550
H          0.49910       -0.39820       -0.91260
H          1.92120       -2.12620        3.20470
