20
gdb 6090	4.08827	1.05116	0.94696	3.4448	72.24	-0.2442	0.057	0.3012	1301.574	0.176395	-382.374149	-382.364227	-382.363283	-382.4095	35.696
C         -0.42300        1.35310       -0.05210
C          0.15080       -0.05280        0.15430
C          0.77530       -0.59970       -1.13450
C          1.18600       -0.08530        1.29270
N          0.63980        0.29530        2.59010
C          0.06520       -0.65430        3.40150
N         -0.25740       -0.19340        4.67660
O         -0.12160       -1.80580        3.05200
H          0.35590        2.05080       -0.38630
H         -1.21130        1.35130       -0.81170
H         -0.85110        1.74440        0.87560
H         -0.66270       -0.72320        0.45710
H          1.61520        0.02550       -1.46280
H          1.15120       -1.61880       -0.99600
H          0.04360       -0.62050       -1.94840
H          1.59890       -1.09580        1.37460
H          2.01090        0.59960        1.06320
H          0.99010        1.13420        3.02090
H         -0.53240        0.77410        4.76230
H         -0.87250       -0.82950        5.16180
