14
gdb 7898	3.55487	1.8266	1.26688	5.3498	58.7	-0.2546	-0.082	0.1726	916.1061	0.106515	-419.734453	-419.727169	-419.726225	-419.766461	26.325
C         -0.12860        1.54610        0.03860
C          0.11140        0.04990       -0.01010
C          0.82910       -0.46770       -1.26730
C          1.80250       -1.49570       -0.72690
O          2.41610       -2.34210       -1.31050
C          1.88700       -1.24550        0.79760
O          2.63600       -1.74880        1.57900
O          0.95980       -0.31590        1.11840
H          0.81320        2.09130       -0.07610
H         -0.80360        1.84190       -0.77050
H         -0.58180        1.83190        0.99110
H         -0.83360       -0.48660        0.13230
H          0.16150       -0.88900       -2.02080
H          1.40970        0.33280       -1.74310
