14
gdb 21287	7.09253	1.35634	1.14851	3.3948	60.08	-0.2118	0.0381	0.2499	992.7316	0.109153	-412.060653	-412.053046	-412.052102	-412.092397	27.331
C          0.01120        1.36230        0.04880
O          0.00750       -0.06260        0.05220
C          0.62670       -0.63270        1.08690
N          1.22230        0.04010        2.05360
N          1.69700       -0.99690        2.83470
C          1.34500       -2.17970        2.29070
N          1.60460       -3.40320        2.87330
N          0.67220       -1.99270        1.16960
H          1.03460        1.75060        0.02340
H         -0.52880        1.66050       -0.85050
H         -0.48860        1.75690        0.93960
H          2.12230       -0.79790        3.72310
H          2.51130       -3.48750        3.31120
H          1.42830       -4.16090        2.22810
