13
gdb 20347	5.29981	2.30318	1.62181	3.6692	64.88	-0.2367	-0.0402	0.1965	728.479	0.099958	-357.674383	-357.668999	-357.668055	-357.703792	20.863
C         -0.07780        1.42890        0.01060
C          1.38670        1.83440       -0.00110
C          2.18700        0.75280       -0.01490
C          1.33600       -0.43040       -0.01330
N          1.38900       -1.75240       -0.02110
C          0.06120       -2.07740       -0.00990
N         -0.79730       -1.05700        0.00370
N          0.05160       -0.01190        0.00120
H         -0.60510        1.78120        0.90460
H         -0.62210        1.79130       -0.86900
H          1.69520        2.87010        0.00170
H          3.26640        0.73670       -0.02540
H         -0.28940       -3.09880       -0.01210
