12
gdb 5201	7.65736	1.18729	1.06009	3.2382	57.51	-0.2434	-0.0083	0.2351	1015.4465	0.083865	-418.51239	-418.505766	-418.504822	-418.54399	23.417
O         -0.02960       -0.03360        0.04930
C          0.07510        1.13240       -0.16110
O          0.93700        1.92070        0.54510
C          0.91380        3.27140        0.30180
C         -0.15460        4.11480        0.34790
O          0.26170        5.37880        0.07180
C          1.60210        5.32820       -0.14020
C          2.06520        4.05830       -0.01520
H         -0.48080        1.70950       -0.92150
H         -1.19960        3.98390        0.57040
H          2.07480        6.26900       -0.36800
H          3.07870        3.70950       -0.12700
