15
gdb 21166	3.19242	1.9166	1.27818	1.8799	63.97	-0.195	0.0315	0.2265	930.0763	0.120145	-395.978317	-395.970135	-395.969191	-396.011973	28.621
C         -0.50390        1.16520        0.08720
N          0.60780        0.22860       -0.13190
C          0.90480       -0.63550        0.92710
C          0.67040       -1.98730        1.11300
O         -0.01300       -2.76540        0.21740
C          1.24730       -2.30070        2.36060
N          1.79890       -1.22620        2.92590
N          1.58300       -0.23630        2.04040
H         -0.26400        1.83030        0.92140
H         -0.62580        1.78290       -0.80660
H         -1.45970        0.66930        0.31130
H          0.44270       -0.32230       -0.96610
H          0.17950       -3.68920        0.40080
H          1.27620       -3.25430        2.86890
H          1.95120        0.68180        2.22140
