22
gdb 8951	3.83256	1.06166	0.88244	0.2161	74.73	-0.2571	0.073	0.3301	1357.6007	0.197659	-387.341586	-387.331016	-387.330072	-387.376954	37.99
C          0.07850        1.58840        0.07590
C         -0.02710        0.06380       -0.01990
C          0.69520       -0.51120       -1.24590
O          2.06040       -0.08260       -1.27270
C          0.59490       -2.04600       -1.36330
C         -0.85260       -2.55810       -1.39580
C          1.36020       -2.53460       -2.59700
O          1.39820       -3.95680       -2.56030
H          1.12380        1.90630        0.08680
H         -0.40320        2.06920       -0.78280
H         -0.40770        1.96080        0.98270
H          0.39580       -0.39950        0.88440
H         -1.08100       -0.23120       -0.04860
H          0.25920       -0.06330       -2.15050
H          2.48920       -0.44060       -0.48650
H          1.09800       -2.48230       -0.48620
H         -0.85850       -3.62380       -1.63380
H         -1.36290       -2.42080       -0.43930
H         -1.43420       -2.03710       -2.16660
H          0.84870       -2.17570       -3.50670
H          2.37010       -2.10730       -2.59450
H          1.87700       -4.26190       -3.33580
