13
gdb 20392	4.97202	2.13081	1.51998	4.143	59.09	-0.2178	0.0093	0.2271	764.7559	0.098699	-394.760115	-394.754041	-394.753097	-394.791335	22.235
C          0.03710        1.38060       -0.13100
C          1.52390        1.84270        0.10610
C          2.11030        0.56150        0.62030
C          1.13300       -0.38430        0.64960
N          1.70610       -1.50010        1.11330
N          3.04570       -1.23690        1.37060
N          3.26540        0.01200        1.06560
O         -0.09690       -0.04650        0.24680
H         -0.67690        1.93110        0.48450
H         -0.26280        1.45210       -1.17820
H          1.98010        2.19290       -0.82530
H          1.56970        2.66730        0.82460
H          1.33620       -2.41940        1.28570
