22
gdb 11568	3.47913	1.22321	0.9694	0.9785	79.28	-0.2349	0.0882	0.323	1285.0669	0.198185	-350.191436	-350.181821	-350.180877	-350.226144	35.275
C          0.13550        1.50530       -0.24340
C         -0.00040        0.00990        0.05110
C         -1.45020       -0.47720        0.08180
C         -1.54860       -1.99270        0.26920
O         -2.09570        0.23790        1.13760
C         -3.48700        0.24550        1.09050
C         -4.28450       -0.72480        1.92880
C         -4.18660        0.73850        2.31500
H          1.18490        1.81520       -0.23340
H         -0.27510        1.75290       -1.22910
H         -0.40450        2.09370        0.50210
H          0.54170       -0.57490       -0.70170
H          0.45730       -0.22430        1.02050
H         -1.93580       -0.20390       -0.87130
H         -1.04220       -2.51120       -0.55150
H         -1.07510       -2.29150        1.21020
H         -2.58950       -2.32430        0.28750
H         -3.89680        0.52760        0.11930
H         -5.22400       -1.10430        1.54080
H         -3.72180       -1.42760        2.53220
H         -3.55490        0.98290        3.16140
H         -5.05610        1.37520        2.19700
