14
gdb 21250	3.45245	1.90299	1.23644	2.1703	59.84	-0.1941	0.0371	0.2312	919.8855	0.107894	-415.85376	-415.846061	-415.845116	-415.886296	27.426
C         -0.22440        1.29120       -0.02900
O         -0.05990       -0.11400       -0.04590
C          0.57580       -0.63490        1.04450
C          0.81470       -1.98920        1.17950
O          0.52800       -3.04130        0.38290
N          1.45270       -2.15090        2.35890
N          1.65120       -0.98260        3.01510
C          1.11710       -0.05900        2.21440
H          0.74500        1.80640        0.00670
H         -0.74080        1.55840       -0.95250
H         -0.82850        1.61240        0.83030
H          0.07690       -2.69520       -0.39630
H          1.77000       -3.01580        2.76140
H          1.14120        0.97970        2.50650
