17
gdb 4078	4.36638	1.50133	1.16931	1.2065	76.47	-0.2219	-0.0273	0.1946	1012.9217	0.143901	-363.848987	-363.84171	-363.840766	-363.880387	28.242
O         -0.06910        1.37090        0.03620
N          0.04510       -0.02850        0.00020
C         -1.09850       -0.61390       -0.02090
C         -1.08960       -2.12460       -0.03920
C         -2.22100       -2.65720       -0.93050
C         -3.58260       -2.12010       -0.46540
C         -3.53840       -0.64430       -0.17590
C         -2.40210        0.04530       -0.00030
H          0.85320        1.64410        0.06780
H         -0.10980       -2.47930       -0.36750
H         -1.23930       -2.49110        0.98660
H         -2.04390       -2.33720       -1.96440
H         -2.22220       -3.75180       -0.92980
H         -4.35390       -2.32550       -1.21800
H         -3.91230       -2.65330        0.44000
H         -4.49140       -0.12360       -0.11540
H         -2.41770        1.11390        0.17310
