14
gdb 18415	3.43438	1.84429	1.55664	3.0683	67.82	-0.2445	-0.0168	0.2277	840.3325	0.106032	-345.357005	-345.350027	-345.349083	-345.388221	26.692
O          0.01710        0.03430       -0.10000
C          0.01810        1.22230        0.03740
C         -1.11400        2.28200        0.13880
C         -0.02290        3.34990       -0.03050
C          0.96470        3.26700        1.09570
C          0.62000        2.87340        2.43450
C          0.33630        2.55850        3.55970
C          1.08740        2.27680       -0.07440
H         -1.78130        2.19400       -0.72300
H         -1.70030        2.31370        1.05950
H         -0.09740        4.23090       -0.65380
H          1.74490        4.02310        1.04470
H          0.09050        2.27130        4.55210
H          2.00600        2.21940       -0.64520
