14
gdb 2652	19.681	0.95161	0.9181	2.8308	65.2	-0.2535	0.0143	0.2679	1212.9401	0.110223	-324.52558	-324.517269	-324.516325	-324.559569	27.529
C         -0.05760        1.42420        0.12550
N          0.02260       -0.01490        0.25790
C         -1.01870       -0.67820        0.02910
O         -1.01170       -2.02590        0.13480
C         -2.26180       -2.65900       -0.15230
C         -2.11970       -4.09790       -0.00280
C         -2.03760       -5.28970        0.11140
H          0.67100        1.76530       -0.61870
H         -1.05340        1.79380       -0.17060
H          0.21550        1.89580        1.07620
H         -1.98920       -0.24590       -0.26490
H         -3.03930       -2.28720        0.53040
H         -2.58020       -2.41930       -1.17710
H         -1.95570       -6.34370        0.21500
