20
gdb 8241	4.56979	1.06954	1.0214	2.3339	71.77	-0.2447	0.0686	0.3132	1242.5061	0.175129	-386.114123	-386.104983	-386.104039	-386.148929	32.387
C         -0.46760        1.37850       -0.06900
C          0.04600       -0.06150        0.01010
C          0.95290       -0.41430       -1.16320
O          0.81950       -0.27350        1.19550
C          0.07970       -0.48700        2.36260
C         -0.47750       -1.91120        2.62180
O          0.25830       -2.00310        3.85920
C          0.95900       -0.77040        3.59030
H          0.37460        2.07750       -0.08000
H         -1.05310        1.52620       -0.98200
H         -1.11020        1.63020        0.77970
H         -0.81330       -0.75150        0.01690
H          1.83130        0.23890       -1.17000
H          1.29740       -1.44850       -1.08340
H          0.42350       -0.29220       -2.11270
H         -0.66460        0.30240        2.52610
H         -1.55710       -2.01560        2.77970
H         -0.13860       -2.64650        1.87960
H          2.00950       -0.93560        3.31960
H          0.89790       -0.06820        4.42880
