16
gdb 2066	4.58056	2.56496	1.77558	3.2084	62.03	-0.2539	0.0233	0.2772	719.928	0.139522	-325.801905	-325.795581	-325.794637	-325.832153	23.991
N         -0.07200        1.32380       -0.16070
C         -0.02180        0.07600        0.04750
C         -1.27850       -0.76390        0.09390
C         -1.19340       -1.92760        1.08920
C          0.10770       -2.69580        0.84680
C          1.28680       -1.74040        0.97130
O          1.17560       -0.58420        0.12600
H          0.87670        1.70450       -0.19700
H         -2.11870       -0.09810        0.29610
H         -1.42680       -1.17290       -0.91520
H         -1.20700       -1.54330        2.11740
H         -2.06560       -2.57970        0.98220
H          0.23540       -3.51150        1.56670
H          0.09880       -3.14180       -0.15550
H          1.38580       -1.40080        2.01280
H          2.22790       -2.21470        0.68230
