13
gdb 10445	2.93044	1.77313	1.29021	3.7904	63.76	-0.2796	-0.0027	0.277	929.3516	0.09314	-361.409611	-361.401738	-361.400794	-361.442234	27.989
C         -0.09070       -1.14210        0.37280
C         -0.04960        0.02330        0.08780
C          0.01960        1.43660       -0.26020
C          1.42630        2.01460       -0.13050
C          1.62930        3.41910        0.27840
O          1.85420        2.34540        1.18840
C          2.44130        1.39430       -0.96770
N          3.23150        0.91090       -1.65810
H         -0.12670       -2.17360        0.62330
H         -0.32900        1.58920       -1.28940
H         -0.63670        2.02210        0.39320
H          2.51850        3.94980       -0.05400
H          0.75270        4.03290        0.47940
