8
gdb 787	10.18544	3.98278	2.8632	0.8171	36.17	-0.269	-0.0312	0.2378	406.9969	0.052337	-333.449362	-333.444983	-333.444039	-333.476952	15.375
O          0.10530        1.29480       -0.13640
C          0.06700       -0.03490       -0.06990
N         -0.03570       -0.80190       -1.14600
N         -0.03270       -2.00440       -0.56720
N          0.06240       -1.99910        0.74630
N          0.12830       -0.73390        1.08960
H          0.18120        1.62330        0.76850
H         -0.09870       -2.85990       -1.09770
