12
gdb 19751	3.95913	2.41862	2.29499	2.866	51.7	-0.2346	-0.0328	0.2018	636.5727	0.085379	-418.459275	-418.454116	-418.453172	-418.488483	20.7
O          0.01460        0.01080        0.00410
C         -0.03860        1.20580        0.01030
C         -1.19010        2.16970        0.02980
C         -0.58340        3.36920        0.77330
O          0.75630        3.05310        1.14000
C          1.09810        2.27240        0.00150
O          0.72800        3.06450       -1.12010
C         -0.60210        3.37670       -0.71660
H         -2.23210        1.89230        0.04160
H         -1.11010        4.02470        1.44950
H          2.14110        1.97660       -0.01300
H         -1.14560        4.03880       -1.37280
