13
gdb 18540	4.13272	2.12728	1.65606	1.7655	57.75	-0.2498	-0.0481	0.2017	748.167	0.096481	-398.609931	-398.603829	-398.602885	-398.640652	22.746
O         -0.01890        0.02220       -0.52030
C         -0.02050        1.15240       -0.14060
C         -1.12060        2.14720        0.28490
C         -0.00860        3.18210        0.62300
N          0.26870        3.30150        2.05980
C          1.29690        2.59350        2.28230
O          1.91630        1.94120        1.25900
C          1.10330        2.20700        0.10450
H         -1.78200        2.42450       -0.54250
H         -1.73140        1.82910        1.13410
H         -0.11600        4.16390        0.16110
H          1.77110        2.45120        3.24660
H          1.74490        2.45150       -0.74370
