16
gdb 1730	5.59294	1.44851	1.27462	1.7996	70.58	-0.2265	0.0456	0.2721	984.3284	0.135335	-288.596392	-288.588092	-288.587148	-288.630252	28.736
C         -0.00260        1.45360        0.02900
C          0.01590       -0.00200        0.03440
C          0.02960       -1.20740        0.04620
C          0.06090       -2.64950        0.01890
C          1.22040       -3.27180       -0.73630
C         -0.55410       -3.37580        1.17290
N         -1.23270       -3.36830       -0.12970
H          0.91410        1.85740       -0.41480
H         -0.84770        1.84040       -0.55160
H         -0.08440        1.85770        1.04420
H          2.17490       -2.98840       -0.28230
H          1.13000       -4.36070       -0.72540
H          1.22410       -2.93700       -1.77790
H         -0.14180       -4.33740        1.46810
H         -0.96380       -2.78300        1.98500
H         -1.99210       -2.69190       -0.11350
