14
gdb 15097	8.97583	0.75435	0.71572	2.233	79.8	-0.2444	-0.0145	0.2298	1498.7277	0.104927	-345.323302	-345.31516	-345.314215	-345.356583	28.879
C          0.05870       -3.72920        0.19750
C          0.04010       -2.52570        0.10170
C          0.01680       -1.16950       -0.00740
C         -0.00620        0.03630       -0.10270
C         -0.01610        1.48630       -0.23060
C          1.38070        2.08900       -0.26190
C          1.63000        3.45070        0.22280
O          2.00780        2.30880        0.99590
H          0.07740       -4.78720        0.28380
H         -0.54430        1.76890       -1.15190
H         -0.57040        1.93320        0.60390
H          2.03890        1.67910       -1.02810
H          2.45210        4.03170       -0.19170
H          0.80520        4.03600        0.62800
