14
gdb 18209	4.34273	1.79486	1.46672	6.0206	61.66	-0.2647	0.0181	0.2828	833.6846	0.109055	-378.6996	-378.693053	-378.692108	-378.730544	24.341
N          0.12460       -1.16870       -0.09210
C          0.07250       -0.01640       -0.04040
C          0.01910        1.45260       -0.05090
O         -0.63570        1.90210        1.12880
C         -0.06820        3.14210        1.56000
C          1.32270        3.18940        0.96670
N          2.08120        1.95340        1.23070
C          1.38860        2.12030       -0.05410
H         -0.53160        1.76390       -0.95340
H         -0.66190        3.99420        1.19660
H         -0.07990        3.13760        2.65370
H          1.83450        4.13790        0.84660
H          3.07580        2.12130        1.10220
H          1.93800        2.20660       -0.98410
