16
gdb 13161	3.71816	1.44596	1.17629	1.3239	66.15	-0.2476	-0.0937	0.154	1024.13	0.129291	-383.747922	-383.739887	-383.738943	-383.781891	27.921
O         -1.11620        1.92290        0.24240
C         -0.20030        1.28180       -0.20160
C          1.20220        1.85880       -0.45160
O          2.03450        1.12050       -0.93070
C          1.44290        3.27950       -0.03880
C          1.92480        3.47240        1.44800
C          2.94180        4.52380        0.93090
C          2.74750        3.97030       -0.50600
H         -0.28010        0.20950       -0.48100
H          0.54210        3.87130       -0.21520
H          1.16860        3.79110        2.16690
H          2.42080        2.57400        1.82560
H          2.55590        5.54160        1.03320
H          3.94900        4.49030        1.35140
H          3.49760        3.22180       -0.77170
H          2.65950        4.69130       -1.32120
