10
gdb 21873	7.17222	1.38568	1.16131	6.1473	55.04	-0.2709	-0.0424	0.2285	905.0196	0.062973	-409.676885	-409.670668	-409.669724	-409.707329	22.463
O          0.11940        1.29650        0.16380
C          0.07580       -0.02290        0.00380
N          0.11320       -0.70190       -1.11820
C          0.03540       -1.99490       -0.66700
N         -0.04560       -2.14050        0.64700
N         -0.01830       -0.85030        1.06620
C          0.04050       -3.11790       -1.54620
N          0.04560       -4.01940       -2.26960
H          0.18550        1.69320       -0.71520
H         -0.06560       -0.62670        2.04710
