16
gdb 13971	5.70456	1.11452	1.03032	1.8227	76.78	-0.2199	0.0248	0.2447	1179.2062	0.129139	-346.535435	-346.527391	-346.526447	-346.569475	28.651
C          0.02160        1.44530        0.03800
C         -0.01300       -0.00800        0.00340
C         -0.04000       -1.21310       -0.01990
C         -0.05110       -2.63220       -0.04830
C         -0.39900       -3.49640       -1.23120
C         -1.16310       -3.67750        0.05770
C         -0.25880       -4.33790        1.08670
O          0.79850       -3.37010        0.85140
H          0.80390        1.79710        0.71950
H          0.22960        1.86720       -0.95160
H         -0.93070        1.86070        0.38660
H         -0.94900       -2.99820       -2.02240
H          0.32200       -4.24150       -1.55720
H         -2.23180       -3.53660        0.13940
H         -0.63050       -4.25710        2.11440
H          0.06810       -5.36570        0.88920
