16
gdb 20214	3.58194	3.14653	2.19378	0.6053	70.9	-0.2144	0.0273	0.2417	669.1956	0.133577	-309.418719	-309.413466	-309.412522	-309.447514	23.36
C         -0.04590        1.52910        0.00870
C          1.09200        2.23030        0.02070
C          2.35110        1.47580        0.00660
C          2.49710        0.13450        0.73590
C          1.18370       -0.67490        0.72200
C          0.06240        0.06540       -0.01760
C          1.18300       -0.64790       -0.78430
C          2.49640        0.16150       -0.77040
H         -1.02600        1.99310        0.01740
H          1.11780        3.31420        0.04010
H          3.26990        2.05440        0.01650
H          3.31170       -0.04050        1.42550
H          0.96330       -1.48770        1.40070
H         -0.86740       -0.49530       -0.02720
H          0.96200       -1.43590       -1.49140
H          3.31040        0.01130       -1.46650
