17
gdb 20866	6.78113	1.03438	0.95895	4.9685	70.32	-0.249	0.0032	0.2521	1225.127	0.143766	-360.053525	-360.045652	-360.044707	-360.086937	27.949
C         -0.10820        1.58720       -0.02010
C         -0.10930        0.05790       -0.06310
C          0.81230       -0.50220       -1.16540
C          0.85140       -1.99500       -1.21690
C          1.80430       -2.92500       -0.86530
N          1.32090       -4.17890       -1.09200
N          0.11400       -4.08870       -1.56750
N         -0.17680       -2.77280       -1.64440
H          0.89730        1.97660        0.17340
H         -0.45010        2.01260       -0.97020
H         -0.76750        1.96060        0.76890
H          0.20980       -0.34730        0.90400
H         -1.13150       -0.30780       -0.22280
H          0.49860       -0.10100       -2.13850
H          1.83330       -0.14080       -1.00270
H          2.79500       -2.76180       -0.47230
H         -1.07680       -2.49070       -1.99920
