24
gdb 10389	2.36551	1.76018	1.28592	0.0576	84.45	-0.2766	0.0769	0.3534	1116.8132	0.223152	-314.272267	-314.262819	-314.261874	-314.305956	35.96
C          0.56650        1.46100        0.21820
C          0.17440       -0.00180       -0.01820
C          0.59920       -0.58500       -1.37850
C          0.04450        0.19440       -2.57720
C         -1.48550        0.26140       -2.65030
C          2.13800       -0.87240       -1.43640
C          1.86260       -2.36200       -1.10150
C          0.36140       -2.13250       -1.41950
H          1.64250        1.61600        0.08400
H          0.04780        2.13880       -0.46690
H          0.31420        1.76990        1.23750
H          0.61470       -0.62070        0.77440
H         -0.91200       -0.11000        0.09410
H          0.45760        1.21140       -2.57810
H          0.42280       -0.27960       -3.49220
H         -1.81060        0.74790       -3.57530
H         -1.92790       -0.74080       -2.63060
H         -1.91170        0.82670       -1.81560
H          2.54130       -0.73880       -2.44480
H          2.77210       -0.31550       -0.74080
H          2.38610       -3.10830       -1.70370
H          2.03850       -2.59590       -0.04830
H         -0.36610       -2.53650       -0.70910
H          0.09090       -2.48010       -2.42140
