13
gdb 4302	4.13764	1.8686	1.29754	3.0838	63.2	-0.261	-0.0629	0.1981	877.772	0.096151	-398.668817	-398.662088	-398.661144	-398.699857	24.578
C          0.02660        1.50890        0.02210
C         -0.03160        0.01330        0.01490
C         -1.18250       -0.68770       -0.15140
C         -1.18860       -2.12970       -0.15080
O         -2.10370       -2.88860       -0.28250
O          0.10910       -2.69350        0.03780
C          1.17120       -1.90150        0.19110
N          1.19230       -0.62130        0.19310
H          0.70020        1.85780       -0.76790
H         -0.95860        1.95580       -0.12140
H          0.44790        1.85930        0.97040
H         -2.13980       -0.20210       -0.29080
H          2.08340       -2.47750        0.32390
