13
gdb 21924	5.43447	1.31727	1.07822	1.1684	56.41	-0.2528	-0.0077	0.2451	1012.1864	0.095653	-435.725372	-435.718189	-435.717245	-435.757266	26.019
O          0.22320        1.16540       -0.61700
C         -0.03790        0.09970        0.27250
C         -1.39380       -0.49870        0.05100
C         -2.24490       -0.46270       -1.00740
C         -3.34830       -1.23420       -0.54790
O         -4.45860       -1.49030       -1.25490
N         -3.18260       -1.69060        0.67040
O         -1.92270       -1.21150        1.05940
H         -0.42230        1.85900       -0.44390
H          0.73740       -0.65100        0.08050
H          0.05590        0.39130        1.32930
H         -2.11110        0.01440       -1.96200
H         -5.03670       -2.03670       -0.70540
