18
gdb 11118	6.74298	0.98337	0.92341	1.7306	74.89	-0.2531	0.0499	0.303	1247.9253	0.152536	-347.753545	-347.744924	-347.74398	-347.786827	31.78
O          0.41520        1.07800       -0.71760
C          0.15200       -0.24810       -0.28510
C         -1.23500       -0.27130        0.33440
C         -2.38680       -0.08160       -0.69080
C         -2.61950       -1.62970       -0.68520
C         -1.76110       -1.70500        0.62230
C         -3.97860       -2.12700       -0.64920
C         -5.11310       -2.52450       -0.59880
H          1.28060        1.09410       -1.13640
H          0.20060       -0.95740       -1.12890
H          0.89140       -0.58180        0.46160
H         -1.24880        0.41840        1.18200
H         -3.24080        0.44840       -0.26490
H         -2.12410        0.37590       -1.64640
H         -2.08150       -2.09700       -1.51640
H         -1.02450       -2.51170        0.67590
H         -2.39310       -1.74640        1.51130
H         -6.11320       -2.87840       -0.56090
