18
gdb 18730	3.14451	2.11794	1.46342	1.9858	66.43	-0.2594	0.0804	0.3398	880.1212	0.155728	-384.938448	-384.931309	-384.930365	-384.969619	28.115
O          0.05850        1.38960       -0.13860
C          0.03850       -0.02800       -0.02690
C          0.84270       -0.52770        1.18030
C          0.69870       -2.04550        1.34560
C         -0.75230       -2.45090        1.65880
C         -1.77410       -1.68780        0.83330
O         -2.06420       -0.34550        1.25510
C         -1.38860       -0.53450        0.00220
H         -0.44360        1.73440        0.60950
H          0.50920       -0.39160       -0.94990
H          1.88990       -0.24110        1.04640
H          0.47740       -0.01870        2.08060
H          1.01860       -2.53670        0.41680
H          1.36580       -2.41150        2.13280
H         -0.88830       -3.52480        1.49000
H         -0.97760       -2.27100        2.71720
H         -2.66670       -2.24280        0.54310
H         -1.98840       -0.27800       -0.87160
