19
gdb 7507	2.98295	1.31044	1.03212	1.3928	81.74	-0.2296	0.0521	0.2816	1227.9288	0.163065	-327.888327	-327.878571	-327.877627	-327.923519	34.379
C          0.08100        1.49200        0.01580
C          0.03850        0.03690        0.00710
C         -0.00270       -1.16720        0.01680
C         -0.01080       -2.61070       -0.02540
C          1.17980       -3.22280       -0.74590
N         -0.51290       -3.28580        1.20300
C         -1.31070       -3.36060       -0.02910
C         -2.65770       -2.68440       -0.01280
H          1.06920        1.86280       -0.27860
H         -0.65250        1.91890       -0.67740
H         -0.13660        1.88820        1.01390
H          2.11400       -2.96670       -0.23530
H          1.09240       -4.31400       -0.78180
H          1.24840       -2.85060       -1.77280
H          0.01100       -4.14760        1.34050
H         -1.28060       -4.30270       -0.57710
H         -2.59960       -1.72750        0.50950
H         -3.01300       -2.50300       -1.03290
H         -3.39540       -3.31260        0.49790
