15
gdb 19923	4.54607	2.18525	1.79001	3.5288	64.53	-0.2378	0.0083	0.2462	740.8592	0.121347	-362.615971	-362.610242	-362.609298	-362.645563	23.32
C          0.03990        1.49420        0.06490
C          1.36270        0.77630        0.03950
N          1.91200        0.57210        1.37760
C          1.15790       -0.31790        1.87020
O          0.68990       -0.58930        3.12960
C         -0.63030       -0.86700        2.50980
C          0.03570       -0.92650        1.09250
C          0.01540       -0.00710       -0.10340
H         -0.25900        1.94600        1.00580
H         -0.24200        2.06410       -0.81450
H          2.05830        0.91860       -0.77850
H         -1.05210       -1.79550        2.89610
H         -1.29840       -0.01910        2.67770
H          0.19930       -1.96780        0.80410
H         -0.29210       -0.40000       -1.06390
