13
gdb 21515	3.72144	1.90875	1.26413	3.3775	69.47	-0.2042	0.0185	0.2227	887.4461	0.096973	-357.633152	-357.625856	-357.624912	-357.66438	27.447
N          0.04690        1.37460        0.15670
C         -0.02350       -0.00370        0.04330
C         -1.13350       -0.84940        0.01550
C         -0.56620       -2.15520       -0.02470
N          0.75320       -2.13440       -0.02950
N          1.06340       -0.80560        0.01670
C         -2.48070       -0.43810        0.01330
C         -3.62430       -0.05410        0.00680
H          0.71890        1.81640       -0.45780
H         -0.86560        1.79950        0.04860
H         -1.09580       -3.09570       -0.05890
H          2.02890       -0.53090        0.07670
H         -4.63610        0.26660        0.00900
