12
gdb 15212	2.56328	2.03967	1.5641	5.4209	59.52	-0.2934	-0.0175	0.2759	828.939	0.083031	-377.521828	-377.514091	-377.513147	-377.554365	26.679
O          0.12610        1.35720       -0.07020
C         -0.00750       -0.00520        0.01080
C         -0.46470       -0.70950        1.27840
C         -0.82880        0.09420        2.40740
N         -1.10200        0.77670        3.30030
C         -1.36160       -0.69670        0.01440
C         -2.53980        0.11850       -0.00400
N         -3.46630        0.81030       -0.03180
H         -0.57160        1.80130        0.42950
H          0.77790       -0.49760       -0.55140
H         -0.01170       -1.66490        1.51960
H         -1.44860       -1.64440       -0.50560
