10
gdb 927	5.85939	2.95546	1.96455	3.0076	51.72	-0.2579	-0.0857	0.1722	582.7982	0.068294	-359.351415	-359.346295	-359.345351	-359.380383	18.71
O         -0.03300       -0.04390        0.00410
C          0.00910        1.15330        0.00860
O         -1.18700        1.87660        0.02860
C         -1.16640        3.22160        0.03520
C         -0.01560        3.92110        0.02350
N          1.20960        3.28740        0.00410
C          1.21200        1.99710       -0.00250
H         -2.16030        3.65300        0.05070
H         -0.01800        5.00320        0.02910
H          2.15810        1.46190       -0.01750
