19
gdb 17553	3.21693	2.0605	1.63308	1.5804	75.29	-0.2217	0.0837	0.3055	879.0181	0.165549	-327.870493	-327.862933	-327.861989	-327.901811	29.873
C          0.05940        1.54540        0.08860
C         -0.02160        0.05430       -0.04610
C         -0.91270       -0.80690        0.76210
N          0.54420       -0.90840        0.99470
C          1.06780       -1.76360       -0.13120
C          0.56300       -0.76740       -1.17920
C          0.01950       -0.99890       -2.55890
C          1.32330       -0.25500       -2.36260
H          1.06440        1.91040       -0.14750
H         -0.64870        2.04040       -0.58710
H         -0.18240        1.85120        1.11040
H         -1.44040       -0.34930        1.59410
H         -1.43280       -1.64360        0.29890
H          2.15720       -1.83350       -0.07200
H          0.64130       -2.77350       -0.14750
H          0.06110       -2.00690       -2.95930
H         -0.85060       -0.43050       -2.87240
H          1.32940        0.81460       -2.54760
H          2.24840       -0.75610       -2.63100
