21
gdb 5943	4.16035	1.12148	1.11321	4.0448	78.52	-0.312	0.0319	0.3439	1187.0902	0.186983	-329.160352	-329.150597	-329.149653	-329.194338	35.991
C          0.16940        1.53930        0.00860
C         -0.03860        0.02110        0.00250
C         -1.50770       -0.47250        0.01400
C         -2.23970       -0.00720        1.28470
C         -2.26400        0.00630       -1.23730
C         -1.43550       -2.02970        0.00490
C         -2.74090       -2.68630        0.01400
N         -3.77990       -3.19330        0.02060
H          1.23900        1.77060       -0.00030
H         -0.27490        2.01770       -0.86910
H         -0.25800        2.00820        0.89970
H          0.45920       -0.39910       -0.88190
H          0.47610       -0.40860        0.87240
H         -2.34090        1.08110        1.30410
H         -3.24600       -0.43350        1.33560
H         -1.69880       -0.31060        2.18830
H         -1.74070       -0.28720       -2.15440
H         -3.27120       -0.41950       -1.27340
H         -2.36560        1.09480       -1.24300
H         -0.88860       -2.37060       -0.88230
H         -0.87180       -2.38000        0.87790
