17
gdb 1179	3.86656	1.89126	1.77921	4.2439	64.49	-0.2392	0.0352	0.2745	817.5813	0.14703	-305.90476	-305.896212	-305.895268	-305.937107	30.736
C         -0.11340        1.47440        0.11080
N         -0.00020        0.02630       -0.03380
C          0.71690       -0.47210       -1.22080
C         -0.02100       -0.04280       -2.50570
C          2.20830       -0.05740       -1.29160
C          0.66280       -1.94830       -1.13150
N          0.64980       -3.10140       -1.06050
H          0.83970        2.02740        0.08990
H         -0.75930        1.88500       -0.67060
H         -0.59670        1.68060        1.06960
H          0.42980       -0.36740        0.79600
H          0.07490        1.03560       -2.65490
H          0.41010       -0.54370       -3.37530
H         -1.08030       -0.29890       -2.43670
H          2.74140       -0.37630       -0.39130
H          2.69960       -0.51040       -2.15710
H          2.29200        1.02870       -1.38230
