17
gdb 7520	5.03877	1.18583	1.10794	5.0124	69.	-0.2775	0.0291	0.3066	1103.9676	0.139813	-363.870074	-363.861176	-363.860232	-363.903684	31.576
C          0.05480        1.44060       -0.30740
C          0.04270       -0.00950        0.10060
O          1.29570       -0.70970        0.12300
C          0.59360       -0.55070        1.35870
C          1.25950        0.30540        2.41140
C         -0.02970       -1.85030        1.87930
C          0.93340       -2.70500        2.57420
N          1.69850       -3.36740        3.13160
H          0.86520        1.99560        0.16730
H          0.18210        1.51930       -1.39200
H         -0.89710        1.91630       -0.04770
H         -0.76280       -0.58810       -0.35960
H          1.71530        1.19240        1.97150
H          0.53410        0.62210        3.16880
H          2.04580       -0.26400        2.91660
H         -0.84920       -1.62020        2.57090
H         -0.45360       -2.41070        1.04080
