16
gdb 10125	3.06409	1.31983	1.10054	3.3591	61.66	-0.2516	-0.0269	0.2247	1091.9366	0.126954	-420.887053	-420.877884	-420.876939	-420.922005	30.76
O          0.36660        1.32030        0.00600
C          0.15490       -0.07570        0.11010
C         -1.33820       -0.46270        0.03940
C         -1.56990       -1.97150        0.05300
C         -2.91540       -2.37250       -0.51660
O         -3.63750       -1.63780       -1.14010
C         -2.11100        0.21790        1.15830
O         -2.83220       -0.36260        1.93080
H          0.12010        1.59500       -0.88340
H          0.70570       -0.62930       -0.66540
H          0.57740       -0.36980        1.07720
H         -1.74370       -0.05400       -0.89860
H         -0.80750       -2.49790       -0.54070
H         -1.49890       -2.37520        1.06930
H         -3.19370       -3.43470       -0.33960
H         -1.94880        1.31230        1.22860
