12
gdb 21008	7.49932	1.31924	1.12995	6.9384	64.34	-0.2779	-0.0359	0.242	973.7785	0.085311	-373.715586	-373.708666	-373.707722	-373.74731	23.817
C          0.00160        1.46330        0.04010
N          0.00080        0.01510       -0.06780
C          0.06020       -0.75980       -1.16710
C          0.02570       -2.04940       -0.67500
N         -0.05140       -1.98980        0.69220
N         -0.06650       -0.74650        1.05120
C          0.06120       -3.26750       -1.40020
N          0.09150       -4.24800       -2.01380
H          0.92330        1.87660       -0.37650
H         -0.85900        1.88540       -0.48450
H         -0.06150        1.70410        1.10080
H          0.11920       -0.36720       -2.16780
