14
gdb 12298	3.15275	2.3614	1.40602	5.0203	60.13	-0.2445	-0.0464	0.1981	831.1031	0.10994	-415.898887	-415.89214	-415.891196	-415.93004	25.092
N         -0.09930        1.20760       -0.44980
C         -0.04970       -0.01000       -0.08200
N         -1.18640       -0.74410        0.16920
C         -1.09600       -1.96540        0.94350
C          0.04630       -2.78270        0.37310
O          1.28150       -2.04830        0.40070
C          1.28750       -0.73560        0.08520
O          2.32840       -0.15010       -0.03090
H          0.85390        1.53630       -0.60910
H         -2.02590       -0.18660        0.24080
H         -0.92670       -1.78210        2.01650
H         -2.02820       -2.52910        0.84310
H          0.22970       -3.68360        0.96150
H         -0.17140       -3.06880       -0.66220
