15
gdb 13911	3.27635	1.69063	1.54083	4.2133	58.52	-0.2414	0.0084	0.2498	874.0146	0.11841	-436.948764	-436.940891	-436.939947	-436.980985	29.535
N          0.08850        1.26520        0.02040
C          0.09290       -0.07820       -0.19270
O          1.14210       -0.67940       -0.42790
C         -1.22390       -0.75510       -0.09430
C         -1.73420       -1.63190       -1.27470
O         -0.96960       -1.78920       -2.41060
C         -1.25520       -2.28640       -0.02130
O         -0.06540       -2.99650       -0.12350
H          0.95110        1.76240       -0.13500
H         -0.76880        1.78990        0.03250
H         -1.99370       -0.22320        0.45540
H         -2.79750       -1.55000       -1.48030
H         -0.28040       -2.43180       -2.17690
H         -1.96640       -2.73670        0.66580
H          0.65620       -2.32940       -0.14900
