11
gdb 124	29.26507	2.42505	2.30445	1.3623	45.04	-0.2565	0.0324	0.2889	532.4302	0.088734	-231.092208	-231.086089	-231.085144	-231.121215	20.194
C         -0.00990        1.40100        0.00150
O         -0.01610       -0.00760        0.03480
C          0.62700       -0.56570       -1.09320
C          0.59940       -2.02050       -1.01710
C          0.59170       -3.22060       -0.98090
H          1.01470        1.80630       -0.00380
H         -0.53770        1.79240       -0.88300
H         -0.52280        1.74680        0.90150
H          0.13280       -0.23380       -2.02320
H          1.67310       -0.21760       -1.15310
H          0.58100       -4.28180       -0.94220
