17
gdb 12642	3.48219	1.94645	1.27832	3.5978	72.3	-0.235	-0.0174	0.2176	955.6552	0.14223	-363.922949	-363.91468	-363.913735	-363.955684	29.365
C         -0.02770        1.40220        0.00890
N         -0.02250       -0.03820       -0.00060
C         -1.21100       -0.85740        0.00360
C         -0.65250       -2.25580       -0.00710
C          0.68290       -2.22820       -0.01560
C          1.68110       -3.33520       -0.02750
C          1.12810       -0.79620       -0.01110
O          2.26910       -0.37270       -0.01580
H          1.01400        1.72970        0.00230
H         -0.53680        1.81050       -0.87360
H         -0.52190        1.79910        0.90490
H         -1.83350       -0.66940        0.89250
H         -1.84570       -0.66080       -0.87470
H         -1.28850       -3.13190       -0.00750
H          1.19940       -4.31600       -0.03040
H          2.33010       -3.25700       -0.90650
H          2.33990       -3.26710        0.84500
