16
gdb 3599	5.28739	2.04975	1.79377	1.7917	60.44	-0.2444	0.0943	0.3387	752.3138	0.137137	-325.72908	-325.722099	-325.721154	-325.759978	25.618
C          0.27160        1.49980       -0.13240
C          0.04380        0.03330        0.13080
O          1.18950       -0.83880        0.15040
C          0.44630       -0.66940        1.36180
C          1.17550       -0.01150        2.49710
C          2.44290       -0.60960        2.98760
N          2.45360        0.66590        2.24930
H          1.04490        1.91950        0.51290
H          0.56130        1.65620       -1.17690
H         -0.65810        2.05310        0.03970
H         -0.79630       -0.39820       -0.41710
H         -0.14090       -1.54440        1.65010
H          0.52890        0.49230        3.21360
H          2.70790       -0.53910        4.03850
H          2.80920       -1.49740        2.47860
H          2.71790        0.46510        1.28540
