15
gdb 11019	4.1557	1.77208	1.49591	4.4706	61.27	-0.2386	0.0261	0.2647	841.0661	0.120019	-399.824878	-399.817874	-399.81693	-399.855819	27.039
O         -0.16020        1.39450        0.04980
C         -0.08220        0.00660        0.04500
C         -0.42010       -0.77850       -1.18420
C         -1.33230       -0.83470        0.03840
C         -1.08750       -1.98980        0.97370
O         -1.87220       -2.84090        1.32750
N          0.23290       -1.90090        1.36260
C          0.88570       -0.64460        1.03810
H          0.50670        1.73770       -0.55460
H         -0.80860       -0.20910       -2.02170
H          0.16120       -1.65680       -1.44720
H         -2.32820       -0.41870       -0.02320
H          0.58780       -2.53740        2.05820
H          1.88410       -0.80400        0.61110
H          0.98560        0.01190        1.91300
