17
gdb 4831	4.39392	1.41295	1.14058	1.3866	73.1	-0.1768	0.0409	0.2178	1068.0863	0.142722	-363.899811	-363.891656	-363.890712	-363.932549	30.054
C         -0.25770        1.52410       -0.17650
C          0.10510        0.03700       -0.01650
C          0.90150       -0.51110       -1.14730
C          2.15000       -1.02410       -1.27390
C          2.32790       -1.39130       -2.65390
C          1.15950       -1.06050       -3.27040
N          0.72750       -1.08050       -4.59170
O          0.28270       -0.52740       -2.38600
H          0.64430        2.14080       -0.23530
H         -0.83370        1.68510       -1.09210
H         -0.85820        1.87190        0.67000
H          0.68780       -0.11040        0.89890
H         -0.81870       -0.54530        0.10670
H          2.86750       -1.14040       -0.47580
H          3.19610       -1.83650       -3.11250
H          1.25730       -1.72880       -5.15820
H         -0.26380       -1.27210       -4.67140
