16
gdb 8842	4.69988	1.20582	0.97522	4.0193	64.08	-0.25	-0.0181	0.2319	1133.9435	0.129866	-417.077667	-417.068861	-417.067916	-417.111799	30.662
C         -0.02840        1.45790       -0.02250
N         -0.00760       -0.00220       -0.02850
C         -0.02410       -0.65440        1.20220
O         -0.06800       -0.07760        2.26450
C          0.03390       -0.74630       -1.21930
N         -0.01660       -2.01640       -1.20150
C          0.15310        0.07270       -2.50800
O          0.07420       -0.74050       -3.65620
H          0.82530        1.87450       -0.56430
H         -0.95360        1.85200       -0.45500
H          0.02810        1.76470        1.02130
H          0.00990       -1.74400        1.08540
H          0.07770       -2.35770       -2.15830
H         -0.60030        0.87170       -2.52320
H          1.13380        0.56120       -2.54060
H         -0.84520       -1.00090       -3.77740
