22
gdb 8417	3.2915	1.75264	1.47994	0.1781	81.86	-0.2464	0.0839	0.3303	988.4199	0.199723	-313.048861	-313.040261	-313.039317	-313.080969	34.02
C          0.14250        1.63600       -0.40850
C          0.25040        0.14190       -0.17350
C          1.48440       -0.69580       -0.36050
C          2.73680        0.00300        0.18970
C          2.10680       -0.01540        1.63010
C          2.78540       -1.08680        2.49160
C          2.02840        1.29660        2.41280
C          0.81180       -0.59430        1.01870
H          1.08370        2.16390       -0.24280
H         -0.15600        1.82900       -1.44520
H         -0.61340        2.08980        0.24220
H         -0.63140       -0.38530       -0.53810
H          1.50460       -1.53830       -1.04210
H          3.64200       -0.60510        0.12310
H          2.95790        0.98830       -0.23370
H          3.80270       -0.78290        2.76380
H          2.22690       -1.25580        3.42010
H          2.84660       -2.04260        1.96090
H          1.56350        2.10190        1.84180
H          1.44430        1.16270        3.33100
H          3.03010        1.63140        2.70830
H          0.21050       -1.34300        1.52630
