15
gdb 9708	3.50519	1.74881	1.60955	1.5126	66.92	-0.2577	0.0118	0.2695	858.1067	0.11815	-362.640351	-362.632696	-362.631752	-362.672527	28.223
C          0.03860        1.46040        0.06960
C         -0.03810       -0.07460       -0.00010
C          0.78610       -0.66040       -1.20000
O          1.83430       -1.43150       -0.57340
C          1.60860       -1.33520        0.75610
N          0.63860       -0.65080        1.19690
C         -1.43420       -0.51330       -0.04770
C         -2.58120       -0.86380       -0.11820
H          1.08520        1.77730        0.09920
H         -0.44650        1.90960       -0.80200
H         -0.45980        1.81740        0.97300
H          0.19790       -1.32560       -1.83420
H          1.24960        0.11860       -1.81090
H          2.31960       -1.87860        1.36890
H         -3.59440       -1.17890       -0.16590
