17
gdb 17575	3.41278	2.3965	1.92592	1.5959	66.81	-0.2268	0.0769	0.3036	752.0708	0.144602	-363.804608	-363.798468	-363.797524	-363.8343	26.296
O         -0.11950        1.38400        0.06530
C          0.03500        0.00180        0.07130
C          0.92210       -0.79930       -0.96070
C          0.71770       -1.92630        0.10770
C          0.78870       -0.79430        1.17380
C         -0.80070       -2.16120       -0.04920
N         -1.63520       -1.64850        1.06590
C         -1.29040       -0.76810       -0.07630
H          0.74910        1.78650        0.16440
H          0.51800       -0.96280       -1.96420
H          1.95290       -0.43580       -1.01420
H          1.37270       -2.79410        0.15740
H          1.81340       -0.43350        1.29580
H          0.30000       -0.94580        2.13340
H         -1.17950       -2.94500       -0.69500
H         -2.58710       -1.98450        0.93000
H         -2.05890       -0.39140       -0.74080
