16
gdb 14896	4.6814	1.49673	1.18613	4.4327	70.14	-0.2444	0.0051	0.2495	976.5657	0.13316	-342.798543	-342.791427	-342.790483	-342.829926	26.864
N         -0.00120       -1.16200       -0.01870
C          0.00320       -0.00680       -0.01700
C         -0.00820        1.46100        0.02980
C         -0.73330        1.96980        1.29860
C         -0.51660        3.45350        1.45300
C          0.41860        4.11890        0.77760
C          1.37380        3.43960       -0.17280
N          1.35810        1.97440       -0.10980
H         -0.56890        1.81160       -0.84710
H         -1.80380        1.74170        1.23110
H         -0.36500        1.42600        2.17940
H         -1.17330        3.97610        2.14320
H          0.51660        5.19620        0.88700
H          1.15470        3.75180       -1.20560
H          2.40110        3.76910        0.02090
H          1.90300        1.66580        0.69010
