11
gdb 9029	4.84136	0.9308	0.80454	3.3977	72.68	-0.2726	-0.0533	0.2193	1299.8375	0.069748	-360.2002	-360.192018	-360.191074	-360.233267	28.405
O         -0.06230        1.44620       -0.00860
C          0.03760        0.03570        0.00530
C          0.67820       -0.47450       -1.23310
N          1.17800       -0.84620       -2.20560
C          0.73040       -0.48780        1.18440
C          1.30150       -0.88830        2.17190
C          1.94690       -1.34110        3.27990
C          2.51910       -1.74180        4.26400
H          0.82860        1.81090        0.06070
H         -0.99940       -0.32370        0.00670
H          3.02400       -2.09700        5.12860
