13
gdb 2978	3.70664	2.51929	1.75643	2.9294	53.65	-0.2749	0.0215	0.2964	710.2236	0.102132	-340.610842	-340.603824	-340.602879	-340.642061	24.642
N          0.25430        1.46860        0.07550
C         -0.05350        0.04090       -0.00270
C          0.47790       -0.61540       -1.21780
N          0.88350       -1.08760       -2.19200
C          0.45160       -0.62490        1.26880
C          1.04940       -1.96220        1.31110
O          1.86280       -0.78310        1.36590
H          1.26320        1.58780        0.11180
H         -0.07330        1.94860       -0.75680
H         -1.14540       -0.06900       -0.02710
H         -0.02510       -0.22170        2.16170
H          0.99780       -2.53360        2.23590
H          1.14150       -2.54440        0.39720
