18
gdb 16499	3.61103	2.28285	1.9214	1.5781	70.02	-0.24	0.0919	0.3319	779.7881	0.155605	-347.754709	-347.748272	-347.747328	-347.784771	26.801
C          0.03070        1.46120        0.00080
C         -0.03380       -0.04440       -0.00900
C         -0.90470       -0.82420        0.94430
C          0.59960       -0.93660        1.04760
C          1.36140       -1.89270        0.10960
C          0.35950       -2.29170       -0.99540
C          0.52950       -0.77990       -1.25140
O          1.94330       -0.94620       -0.86430
H          1.01430        1.80330       -0.33860
H         -0.72820        1.90270       -0.65640
H         -0.13450        1.85880        1.00730
H         -1.37770       -0.23340        1.72460
H         -1.51360       -1.65960        0.61980
H          1.11810       -0.52820        1.90720
H          2.08780       -2.58060        0.54090
H          0.85860       -2.86860       -1.77310
H         -0.61190       -2.72450       -0.75500
H          0.39370       -0.31290       -2.22740
