13
gdb 3657	3.63407	3.39087	1.77832	3.9418	56.56	-0.2104	-0.0001	0.2104	676.7214	0.102362	-340.629609	-340.622833	-340.621889	-340.660373	24.068
C          0.04730        1.49820        0.03840
C         -0.07170        0.01650        0.05140
C         -1.13330       -0.84200        0.00950
N         -2.51030       -0.56990        0.00200
C         -0.51950       -2.12560        0.07470
N          0.78650       -2.04970        0.14350
O          1.07780       -0.69750        0.14030
H          0.89070        1.81140       -0.58410
H         -0.86170        1.95280       -0.36740
H          0.20480        1.90780        1.04320
H         -2.71580        0.39440       -0.22690
H         -3.02200       -1.17130       -0.63190
H         -0.99560       -3.09660        0.07000
