16
gdb 17418	2.99077	2.62982	1.81032	3.3394	68.09	-0.2319	0.0114	0.2432	772.2076	0.130557	-346.581078	-346.574276	-346.573332	-346.611757	26.568
C         -0.00960        1.58690        0.04150
C          0.02270        0.08600        0.09260
C         -1.26000       -0.79060        0.22180
C         -0.35240       -1.85650        0.84090
C          0.96130       -1.87100        0.04480
C          0.69940       -0.85860        1.18630
C          0.88710       -0.72000       -0.90480
O          1.47050       -0.41360       -1.90790
H          1.00210        2.00270        0.00350
H         -0.53520        1.92130       -0.85930
H         -0.52580        2.00920        0.90970
H         -1.95240       -0.38190        0.96380
H         -1.80000       -1.02690       -0.70240
H         -0.63870       -2.74140        1.39510
H          1.63290       -2.71820        0.05220
H          1.31780       -0.66460        2.04900
