17
gdb 14001	3.86739	1.53494	1.30228	4.2881	73.53	-0.2792	0.0279	0.3071	972.552	0.142985	-326.720924	-326.713434	-326.71249	-326.752951	28.12
N          0.02840       -1.13520       -0.08530
C          0.00860        0.02120       -0.03400
C          0.01680        1.45430        0.01790
C          0.53220        2.16160        1.26900
C          1.34710        2.19520        0.02510
C          2.70800        1.54910       -0.26500
C          2.87970        2.55500       -1.44260
C          1.67000        3.37470       -0.90210
H         -0.80640        1.92620       -0.50960
H         -0.00370        3.05580        1.57040
H          0.86720        1.53320        2.08730
H          3.42580        1.71530        0.54370
H          2.70010        0.48520       -0.51310
H          3.83500        3.07920       -1.50230
H          2.67160        2.09730       -2.41220
H          0.90100        3.66500       -1.62270
H          1.97790        4.26460       -0.34420
