13
gdb 19488	3.79182	2.05684	1.89676	1.4766	62.77	-0.2375	0.0067	0.2442	738.005	0.09606	-361.415872	-361.409531	-361.408586	-361.446309	24.264
C         -0.02550       -1.21860       -0.01140
C          0.01000       -0.01690        0.00940
C          0.04570        1.41150        0.04300
C          0.49370        2.18200        1.27280
O          1.24960        1.45980        2.22440
C          2.38920        1.09960        1.57210
N          2.56070        1.49670        0.37600
C          1.36020        2.21350        0.03160
H         -0.05660       -2.27950       -0.03810
H         -0.75560        1.91250       -0.49360
H         -0.10170        2.97390        1.70750
H          3.07360        0.49570        2.15340
H          1.45600        3.04400       -0.65640
