18
gdb 13382	5.97424	0.9749	0.89365	1.5954	70.88	-0.2269	0.0204	0.2473	1282.5661	0.153493	-384.934981	-384.926429	-384.925485	-384.969136	29.797
O         -0.09300        1.44620       -0.06020
C          0.02020        0.03470       -0.13530
C         -1.36470       -0.54850        0.16080
C         -1.40410       -2.04460        0.10980
C         -1.62310       -2.90330        1.10270
C         -1.59380       -4.31420        0.59320
O         -1.31620       -4.20120       -0.80110
C         -1.20990       -2.83090       -1.16620
H          0.77190        1.82810       -0.23570
H          0.36010       -0.28520       -1.13280
H          0.74430       -0.35360        0.59810
H         -1.68120       -0.19610        1.14750
H         -2.06660       -0.12410       -0.56950
H         -1.81320       -2.65090        2.13890
H         -0.81630       -4.92660        1.07770
H         -2.55290       -4.83620        0.74470
H         -1.97350       -2.57680       -1.92090
H         -0.22880       -2.64950       -1.63400
