14
gdb 4935	5.06887	1.5023	1.16859	2.004	60.64	-0.1888	0.0345	0.2233	972.7003	0.107817	-415.881679	-415.874057	-415.873113	-415.913909	27.417
C         -0.00280        1.40470       -0.02740
O         -0.01350       -0.01980       -0.02930
C          0.60790       -0.61870       -1.05710
C          0.73680       -1.95250       -1.25620
O          1.45060       -2.10330       -2.44770
C          1.68460       -0.84930       -2.85620
N          2.44040       -0.69300       -3.98990
N          1.21220        0.08810       -2.08630
H          1.01930        1.79520        0.00250
H         -0.50460        1.80800       -0.91260
H         -0.54160        1.70160        0.87380
H          0.43540       -2.84710       -0.74700
H          2.37240       -1.45360       -4.65000
H          2.34330        0.21910       -4.40980
