11
gdb 243	8.68161	2.49189	1.95985	5.6602	45.18	-0.2511	-0.0298	0.2213	600.473	0.083351	-322.479769	-322.473128	-322.472183	-322.510598	21.535
C         -0.01170        1.54060       -0.06220
C         -0.02620        0.03740        0.16590
O         -0.09250       -0.47780        1.24980
N          0.04900       -0.69390       -1.03580
C          0.06150       -2.07700       -1.20010
O          0.00950       -2.90360       -0.33370
H          0.90820        1.84880       -0.57090
H         -0.85770        1.84890       -0.68600
H         -0.07450        2.03920        0.90400
H          0.10120       -0.15810       -1.89020
H          0.12820       -2.32750       -2.27960
