15
gdb 14621	8.56069	0.6501	0.62533	4.0631	63.99	-0.2915	-0.005	0.2864	1649.1418	0.117507	-399.835206	-399.826471	-399.825527	-399.870339	28.666
O          0.20030        0.05030       -0.19360
C          0.23940        1.23810       -0.28370
O          0.81210        2.02230        0.65360
C          0.83640        3.43280        0.43250
C          2.26150        3.89250        0.13890
C          2.33680        5.42610        0.00670
C          3.69130        5.89290       -0.27810
N          4.76700        6.24770       -0.50470
H         -0.18720        1.82030       -1.12490
H          0.15980        3.69900       -0.39130
H          0.45310        3.90110        1.34510
H          2.92070        3.55570        0.94420
H          2.61680        3.42330       -0.78410
H          1.67550        5.77650       -0.79500
H          1.99190        5.90640        0.93010
