16
gdb 14693	5.17242	0.70129	0.62471	0.9317	74.62	-0.2494	0.0384	0.2878	1705.5975	0.127428	-346.533394	-346.523718	-346.522774	-346.570835	32.753
O         -0.05860        1.25210       -0.47950
C         -0.58290       -0.06090       -0.57920
C         -0.56510       -0.65530        0.83370
C         -1.08400       -2.01630        0.87110
C         -1.51720       -3.13860        0.87200
C         -2.04160       -4.50590        0.89150
C         -2.45170       -4.99540       -0.42670
C         -2.79140       -5.40840       -1.50160
H         -0.06020        1.64520       -1.35680
H         -1.61410       -0.06140       -0.96240
H          0.02010       -0.69230       -1.24840
H          0.46550       -0.62640        1.20790
H         -1.15180       -0.00200        1.49090
H         -1.28490       -5.18540        1.30780
H         -2.89760       -4.56300        1.57830
H         -3.09070       -5.76990       -2.45390
