16
gdb 20894	5.52459	1.28368	1.14057	0.8421	67.72	-0.2063	0.0252	0.2315	1055.611	0.131423	-379.937846	-379.929962	-379.929017	-379.970663	28.528
C         -0.09510        1.52530       -0.30020
C         -0.06200        0.07040        0.17120
N         -1.36380       -0.57190        0.10620
C         -1.86040       -1.34130       -0.90340
C         -3.16220       -1.64000       -0.55250
O         -4.01520       -2.40660       -1.28850
C         -3.36200       -0.99860        0.68650
N         -2.26180       -0.34870        1.07480
H          0.89910        1.97390       -0.21080
H         -0.41090        1.59220       -1.34560
H         -0.79430        2.10220        0.30990
H          0.62790       -0.52260       -0.43650
H          0.27130        0.01260        1.21060
H         -1.27270       -1.61980       -1.76220
H         -4.85380       -2.46550       -0.82160
H         -4.24600       -0.99170        1.30870
