20
gdb 5980	3.72119	1.1472	1.09814	2.7456	72.	-0.2508	-0.0248	0.226	1200.8006	0.172311	-386.151416	-386.141053	-386.140109	-386.189349	35.838
C         -0.13090        1.57880        0.09810
C          0.04160        0.06900        0.04430
O         -1.25030       -0.50750       -0.03740
C         -1.34830       -1.92690       -0.09990
C         -0.70300       -2.51380       -1.36710
C         -0.81750       -2.61750        1.16820
C         -2.86250       -2.16450       -0.17790
O         -3.36780       -3.25380       -0.24580
H          0.84400        2.07130        0.16210
H         -0.64460        1.93810       -0.79800
H         -0.72440        1.86600        0.97070
H          0.65130       -0.21110       -0.82720
H          0.57160       -0.28320        0.94150
H          0.38860       -2.48100       -1.31130
H         -1.01140       -3.55630       -1.47750
H         -1.02440       -1.95900       -2.25360
H         -1.21960       -2.13570        2.06450
H         -1.13040       -3.66440        1.16500
H          0.27460       -2.58400        1.21380
H         -3.45820       -1.22640       -0.16570
