18
gdb 10134	2.76062	1.25471	0.90901	0.7064	79.7	-0.2602	0.0352	0.2954	1288.1294	0.150357	-310.603406	-310.593807	-310.592862	-310.637833	34.643
C          0.00470        1.58520        0.04380
C          0.00090        0.05480       -0.00150
C          0.69920       -0.49590       -1.24690
C          0.70560       -2.05090       -1.31490
C         -0.65310       -2.60150       -1.38450
C         -1.77220       -3.03500       -1.43590
C          1.52430       -2.52220       -2.43680
C          2.21210       -2.87780       -3.35490
H          1.02600        1.98200        0.04440
H         -0.51330        2.00780       -0.82400
H         -0.49680        1.95530        0.94320
H          0.49560       -0.34080        0.89580
H         -1.03000       -0.31550        0.02740
H          0.21900       -0.11370       -2.15420
H          1.74260       -0.16260       -1.27440
H          1.16740       -2.41630       -0.38510
H         -2.75700       -3.42930       -1.48530
H          2.81400       -3.20470       -4.16630
