17
gdb 4912	6.47743	1.22691	1.05163	0.9482	70.83	-0.2269	0.015	0.2419	1138.0814	0.14212	-363.915417	-363.907234	-363.906289	-363.948596	29.073
C         -0.92750        0.81790       -0.10740
C          0.53760        0.37490       -0.09310
C          1.00710       -0.13020        1.23330
C          0.34700       -0.25520        2.40950
O          1.21430       -0.77060        3.33900
C          2.37930       -0.93450        2.66280
C          3.53930       -1.48760        3.40940
N          2.31790       -0.57480        1.42010
H         -1.10370        1.63010        0.60560
H         -1.21460        1.17650       -1.09960
H         -1.59500       -0.00950        0.15520
H          0.70090       -0.40960       -0.84310
H          1.18520        1.20660       -0.39900
H         -0.65210       -0.04910        2.75070
H          3.31410       -2.48250        3.80740
H          4.39270       -1.55830        2.73490
H          3.80480       -0.84700        4.25680
