17
gdb 14408	3.34912	2.6056	2.07578	2.1838	66.87	-0.2215	0.0718	0.2933	723.6644	0.144712	-363.798188	-363.792114	-363.79117	-363.827849	25.593
O         -0.01830        1.42560       -0.04000
C          0.03300        0.03870       -0.07030
C          0.42710       -0.82960       -1.26220
N         -0.32390       -1.94240       -0.55590
C          0.59020       -2.14510        0.61970
C          0.40360       -0.76980        1.27170
C         -1.11700       -0.82390        1.57910
C         -1.24000       -0.83300        0.05630
H          0.85670        1.76260        0.18080
H         -0.10530       -0.53390       -2.17060
H          1.47360       -1.05210       -1.49550
H          0.24660       -2.97270        1.24710
H          1.60260       -2.36850        0.27450
H          1.13090       -0.39590        1.99290
H         -1.49790       -1.66240        2.16920
H         -1.49800        0.12250        1.96990
H         -2.15780       -0.68580       -0.50930
