12
gdb 984	3.87258	3.32076	1.79473	1.2175	51.73	-0.1747	0.0573	0.232	645.3143	0.090592	-360.533083	-360.526491	-360.525547	-360.563056	24.676
O          0.08960        1.33190        0.15190
C          0.05480       -0.01560        0.00580
C          0.01520       -0.80590       -1.11670
O         -0.04670       -0.27860       -2.39230
C         -0.02710       -2.16420       -0.67990
C         -0.00510       -2.14780        0.69330
N          0.03620       -0.82720        1.10290
H          0.06340        1.69980       -0.73990
H          0.69590       -0.61710       -2.90300
H         -0.07200       -3.04060       -1.30790
H         -0.01860       -2.94770        1.41380
H          0.05040       -0.49670        2.05120
