13
gdb 11652	3.43495	1.89121	1.5134	3.6466	59.73	-0.267	-0.0116	0.2555	822.9471	0.095035	-398.531001	-398.524226	-398.523282	-398.561905	25.522
O          0.20250        1.46230        0.11300
C          0.06210        0.08530        0.03640
C         -0.11850       -0.67920        1.36660
C         -1.54260       -0.09480        1.52740
C         -1.36690       -0.59270        0.06970
O         -0.68990       -1.79950        0.57470
C         -2.33920       -0.71490       -0.98510
N         -3.10790       -0.75740       -1.84770
H          0.27030        1.82040       -0.77800
H          0.73640       -0.40590       -0.67170
H          0.62140       -0.92870        2.12390
H         -2.22540       -0.69370        2.12920
H         -1.63760        0.97970        1.67910
