14
gdb 17715	6.86307	1.49858	1.4415	3.8752	62.15	-0.2431	0.0086	0.2517	844.3197	0.107319	-382.476628	-382.470325	-382.469381	-382.506956	24.437
O          0.00510        1.47180       -0.04610
C          0.05590        0.07000       -0.00290
C          0.00800       -0.63260        1.37190
C         -1.52220       -0.27770        1.56010
C         -1.31790       -0.60400        0.02630
C         -0.73140       -1.88030        0.74720
C         -1.81080       -1.75250        1.81980
O         -2.50220       -2.44530        2.50120
H          0.90380        1.81470       -0.02760
H          0.78030       -0.33420       -0.72400
H          0.74670       -0.67770        2.17220
H         -1.92990        0.63690        1.98000
H         -2.10450       -0.60960       -0.72710
H         -0.26680       -2.74010        0.26930
