18
gdb 13270	7.74345	0.73367	0.71479	1.3679	78.98	-0.238	0.0354	0.2734	1598.7288	0.153214	-347.755779	-347.746899	-347.745955	-347.79093	31.037
O         -0.04660        1.48160        0.91020
C          0.04720        0.31610        0.09750
C         -1.26490       -0.30270       -0.03190
C         -2.34380       -0.82670       -0.14780
C         -3.63190       -1.46960       -0.30020
C         -4.21180       -1.70490       -1.73420
C         -4.75650       -3.07290       -1.24600
C         -3.75610       -3.01100       -0.06220
H          0.83720        1.85850        0.97110
H          0.43050        0.56340       -0.90650
H          0.74940       -0.41450        0.53250
H         -4.37660       -0.94710        0.31110
H         -4.92200       -0.96600       -2.11100
H         -3.40480       -1.82430       -2.46140
H         -5.79320       -2.99840       -0.90500
H         -4.67720       -3.92050       -1.92960
H         -2.81510       -3.51460       -0.29770
H         -4.09490       -3.33640        0.92370
