12
gdb 15514	3.10616	2.1593	1.53236	1.667	50.92	-0.2688	-0.0558	0.2131	790.2662	0.08317	-455.646303	-455.639403	-455.638459	-455.678186	23.518
O          0.13620       -0.04790       -0.12350
C          0.08890        1.13190        0.08740
C          1.33420        2.02670        0.10290
O          2.53880        1.30930        0.04460
C          2.93460        1.28000       -1.30820
O          2.34650        2.41940       -1.94230
C          1.34520        2.89590       -1.16500
O          0.62510        3.80070       -1.45640
H         -0.86130        1.67750        0.26840
H          1.31250        2.66730        0.99130
H          4.02200        1.36410       -1.36750
H          2.57750        0.37470       -1.81400
