15
gdb 9697	3.53533	1.76475	1.62631	1.6262	66.85	-0.2545	0.0158	0.2703	852.4554	0.117986	-362.643523	-362.635925	-362.63498	-362.675477	28.222
C         -0.11010        1.61210       -0.01880
C          0.01880        0.08770       -0.02950
C          0.94320       -0.44720       -1.18130
N          2.12690       -0.99460       -0.51000
C          1.91010       -0.87230        0.73110
O          0.76370       -0.30590        1.17430
C         -1.28600       -0.56390       -0.00130
C         -2.36690       -1.08800       -0.01590
H          0.88530        2.06530       -0.02580
H         -0.65730        1.94690       -0.90450
H         -0.64730        1.94640        0.87150
H          0.45030       -1.22600       -1.76910
H          1.23070        0.35890       -1.86430
H          2.58300       -1.18890        1.52070
H         -3.32030       -1.55670       -0.02020
