16
gdb 17701	5.02189	2.01677	1.96529	1.2972	67.03	-0.2292	0.0781	0.3073	735.5973	0.132021	-346.522283	-346.516497	-346.515552	-346.551663	24.679
O         -0.13490        1.41790        0.01740
C          0.03590        0.05810       -0.02610
C          0.09020       -1.00980        1.04430
C         -1.01450       -1.00920       -0.05090
C         -0.31580       -1.85510       -1.13830
C          0.44330       -2.99580       -0.41740
C          1.17030       -1.84660        0.32580
C          0.91750       -0.89500       -0.90940
H          0.62480        1.80620        0.46640
H         -0.16090       -0.95630        2.09570
H         -2.06310       -0.94000        0.20580
H         -0.81130       -1.99020       -2.09880
H         -0.12900       -3.72140        0.16900
H          1.11820       -3.52080       -1.10120
H          2.14010       -1.97740        0.80510
H          1.65760       -0.64090       -1.66440
