17
gdb 20297	5.22766	1.58248	1.52849	1.8492	68.54	-0.2301	0.0816	0.3117	878.9237	0.143921	-363.746397	-363.7399	-363.738956	-363.777332	25.299
C          0.17240        1.51900        0.12360
O          1.04540        0.55390       -0.47410
C         -0.23260        0.11270       -0.01530
C         -0.38460       -0.78950        1.18110
C          0.26060       -2.19100        1.35380
C          1.56770       -1.42260        1.64720
N          0.51670       -0.58230        2.41700
C         -0.03140       -1.95720        2.85100
H          0.48290        1.87510        1.10320
H         -0.22610        2.26900       -0.55720
H         -0.92210       -0.13640       -0.82530
H         -1.44720       -0.74500        1.45710
H          0.10680       -3.09540        0.75460
H          2.28880       -1.90380        2.31390
H          2.05490       -0.88110        0.84190
H         -1.07320       -1.93040        3.18400
H          0.60980       -2.45970        3.57940
