18
gdb 11295	3.39149	1.62263	1.41235	3.5662	71.56	-0.2265	0.0306	0.2571	948.2874	0.155822	-343.997232	-343.989376	-343.988432	-344.029949	28.956
C         -0.43230        1.41640        0.31360
N          0.09320        0.09200       -0.01900
C         -0.94200       -0.85490       -0.43770
C         -1.55460       -1.43890        0.86140
C         -0.36340       -1.40110        1.86880
C          0.74640       -0.57580        1.09870
C         -0.72400       -0.80660        3.15040
N         -1.00260       -0.32190        4.16330
H          0.39360        2.06500        0.61890
H         -0.88840        1.85460       -0.57900
H         -1.18400        1.42540        1.12130
H         -1.68080       -0.36860       -1.07860
H         -0.47110       -1.65710       -1.02000
H         -2.37370       -0.81320        1.22160
H         -1.94530       -2.45010        0.73100
H          0.00730       -2.41030        2.06990
H          1.48420       -1.28850        0.71370
H          1.26540        0.13600        1.74210
