19
gdb 10840	4.3159	1.4952	1.20005	2.9239	72.47	-0.2242	-0.0122	0.212	1025.0312	0.166703	-365.086728	-365.078945	-365.078001	-365.118765	29.544
C         -0.01030        1.48190        0.00950
N          0.00040        0.02810        0.00150
C          0.56370       -0.50410       -1.23390
C          0.39610       -2.03090       -1.30310
C          0.95390       -2.70350       -0.05870
O          1.67720       -3.67090       -0.09870
C          0.51930       -2.04400        1.24060
C          0.68010       -0.51650        1.17120
H          1.00230        1.92640       -0.03720
H         -0.58040        1.85290       -0.84790
H         -0.49470        1.84380        0.92170
H          0.04920       -0.03880       -2.08110
H          1.63860       -0.24970       -1.33400
H         -0.67590       -2.26090       -1.35540
H          0.88430       -2.44850       -2.18650
H         -0.54290       -2.27510        1.39380
H          1.09030       -2.47050        2.06840
H          1.75970       -0.26260        1.16970
H          0.25010       -0.06020        2.06890
