17
gdb 7736	3.43918	1.77804	1.21531	4.452	72.51	-0.235	-0.0255	0.2094	984.6315	0.144043	-363.922407	-363.914882	-363.913938	-363.954067	28.438
C          0.03270        1.51680        0.03150
C         -0.03700        0.01880       -0.00790
C         -0.04090       -0.68380       -1.14830
C         -0.01750       -2.16580       -1.19210
O          0.13720       -2.79190       -2.22740
N         -0.13760       -2.78810        0.03170
C         -0.68880       -2.09370        1.18580
C         -0.04940       -0.71070        1.31620
H          0.90780        1.84960        0.60500
H          0.09460        1.94740       -0.97060
H         -0.84590        1.93680        0.53730
H         -0.00120       -0.20410       -2.12030
H         -0.26890       -3.78710       -0.03470
H         -1.78150       -1.97950        1.09970
H         -0.49360       -2.69000        2.08190
H          0.98450       -0.80370        1.67910
H         -0.59070       -0.12820        2.07010
