18
gdb 18804	3.12783	2.96372	2.41377	0.0571	69.86	-0.191	0.0928	0.2838	693.5703	0.158328	-343.910642	-343.905108	-343.904164	-343.939763	24.127
C          0.03350        1.52070       -0.19340
C          1.53260        1.45830        0.05250
C          1.28910        0.13100        0.81040
C          2.49290       -0.43720        0.07580
N          2.31650        0.62670       -0.97660
C          1.39620        0.07040       -1.98620
C          0.18440       -0.60660       -1.27210
N         -0.03730        0.03350        0.03810
H         -0.48370        2.05620        0.61050
H         -0.35700        1.86660       -1.15560
H          2.10850        2.31520        0.41080
H          1.14540        0.01430        1.88740
H          3.42040       -0.26990        0.63450
H          2.48320       -1.46840       -0.29090
H          1.07470        0.87890       -2.64930
H          1.95020       -0.64500       -2.60380
H         -0.73350       -0.51450       -1.86300
H          0.35370       -1.67580       -1.11460
