19
gdb 15160	7.34008	0.70286	0.67735	1.5488	81.28	-0.2415	0.0532	0.2947	1712.4732	0.164901	-327.876502	-327.867214	-327.86627	-327.913144	32.284
C         -0.39970        1.27890       -0.05620
C          0.63300        0.15180        0.12660
C          1.17340       -0.34110       -1.13640
C          1.60680       -0.72910       -2.19110
C          2.12190       -1.22960       -3.46370
C          1.71010       -2.66500       -3.75580
C          2.60680       -3.54400       -4.54390
N          2.39720       -3.78530       -3.10350
H          0.04770        2.13710       -0.56510
H         -1.24660        0.93560       -0.65650
H         -0.77780        1.61230        0.91490
H          1.45500        0.50820        0.76100
H          0.17250       -0.68110        0.67350
H          1.77360       -0.58440       -4.28220
H          3.21920       -1.16390       -3.47550
H          0.63500       -2.80950       -3.83750
H          2.19490       -4.30440       -5.20120
H          3.55850       -3.13240       -4.87260
H          3.19340       -3.43850       -2.57280
