20
gdb 10307	2.42403	1.67957	1.059	3.0217	75.99	-0.2468	0.0315	0.2783	1158.4078	0.175927	-345.19789	-345.188039	-345.187095	-345.232383	35.096
C         -0.24900        1.47450        0.08800
N          0.12660        0.06870       -0.04650
C          0.76100       -0.51020        1.13290
C         -0.15380       -0.50810        2.30290
N         -0.92140       -0.48630        3.16800
C          1.29630       -1.93710        0.84720
C          2.31040       -1.90300       -0.30260
C          1.90160       -2.57520        2.10370
H          0.65500        2.07880        0.22060
H         -0.73570        1.80090       -0.83470
H         -0.92530        1.68180        0.93200
H         -0.69000       -0.48410       -0.28870
H          1.61550        0.12960        1.39360
H          0.43300       -2.54230        0.53580
H          2.62410       -2.91850       -0.56280
H          1.88910       -1.42510       -1.18830
H          3.20760       -1.34390       -0.01040
H          1.17650       -2.64500        2.91880
H          2.25770       -3.58510        1.88010
H          2.75980       -1.99450        2.46240
