17
gdb 13668	5.50706	0.8945	0.83247	4.1986	69.58	-0.277	0.0354	0.3124	1354.5906	0.140966	-363.864925	-363.85624	-363.855296	-363.899102	30.302
C          0.14880        1.51670       -0.25130
C          0.02250        0.04820        0.06160
O          1.23210       -0.71020        0.19390
C          0.38370       -0.58540        1.34220
C          0.96090        0.13690        2.53570
C          2.13300       -0.67050        3.13630
C          2.71990       -0.01980        4.30430
N          3.16930        0.51010        5.22770
H          0.93180        1.99710        0.33820
H          0.39550        1.65140       -1.30940
H         -0.80010        2.02960       -0.06140
H         -0.74290       -0.46690       -0.52300
H         -0.13780       -1.51240        1.59560
H          1.31970        1.13020        2.25820
H          0.17980        0.27110        3.29210
H          1.79780       -1.67310        3.42700
H          2.90710       -0.80340        2.37310
