18
gdb 18351	3.40777	2.11913	1.55755	1.6378	71.91	-0.2417	0.0113	0.253	853.1981	0.15575	-347.799443	-347.792439	-347.791495	-347.830566	27.697
O          0.46710        0.94650       -0.87910
C          0.07700       -0.21350       -0.15480
C          0.63660       -0.28360        1.25360
C         -0.27940       -0.63090        2.15790
C         -1.63740       -0.86910        1.54930
C         -2.69210        0.25150        1.78870
C         -2.25710        0.90940        0.44860
C         -1.44550       -0.37140        0.08080
H          0.24620        1.71440       -0.34150
H          0.45970       -1.04010       -0.76720
H          1.68160       -0.07200        1.45490
H         -0.09550       -0.74120        3.22250
H         -1.98850       -1.89360        1.70920
H         -3.71560       -0.13100        1.75530
H         -2.57590        0.85180        2.69530
H         -3.05750        1.18250       -0.24160
H         -1.63230        1.79450        0.59790
H         -1.93170       -0.96980       -0.69060
