18
gdb 6761	6.55926	0.66665	0.63014	2.6331	75.16	-0.2519	0.0312	0.2831	1794.8172	0.1504	-384.892061	-384.881897	-384.880953	-384.928702	34.196
C          0.07420        1.40240       -0.00770
O          0.11840       -0.00190       -0.10840
C          0.46260       -0.61090        1.12030
C          0.49750       -2.05960        0.97500
C          0.53740       -3.25830        0.86500
C          0.56080       -4.72120        0.77090
C          1.46120       -5.33780        1.85200
O         -0.75110       -5.27950        0.80200
H          1.04940        1.82380        0.28500
H         -0.19650        1.78800       -0.99290
H         -0.67720        1.73780        0.72530
H          1.44680       -0.24870        1.46700
H         -0.26410       -0.33280        1.90430
H          0.95290       -5.00300       -0.21400
H          1.10000       -5.06910        2.85000
H          1.44910       -6.42640        1.75500
H          2.49020       -4.97970        1.75430
H         -1.20270       -4.91040        1.56900
