17
gdb 12358	2.82772	2.22002	1.52272	3.1222	70.36	-0.214	-0.0508	0.1632	870.2413	0.143809	-363.886178	-363.878726	-363.877782	-363.917814	28.295
C         -0.20290        1.50460        0.08220
C          0.04050       -0.00800       -0.03000
N          0.76160       -0.34730       -1.26640
C          2.17770        0.01500       -1.24540
C          2.88570       -0.28910        0.04810
C          2.22050       -0.57240        1.17530
C          0.74410       -0.51260        1.23760
O          0.12550       -0.79550        2.24500
H          0.73550        2.06010        0.18150
H         -0.72190        1.86270       -0.81070
H         -0.81260        1.71850        0.96350
H         -0.93230       -0.50790       -0.06950
H          0.69500       -1.35040       -1.40680
H          2.67820       -0.49940       -2.07390
H          2.28880        1.08860       -1.46520
H          3.97420       -0.25740        0.04080
H          2.72710       -0.81650        2.10420
