20
gdb 11671	3.28613	1.64798	1.38175	1.4388	74.98	-0.2472	0.0742	0.3214	995.2896	0.177088	-348.959763	-348.951647	-348.950703	-348.992113	31.401
C          0.02010        1.51400       -0.07460
C         -0.07060       -0.01440       -0.00040
C         -1.48290       -0.54250        0.02410
C         -2.58110       -0.33260        1.11340
C         -3.25680       -1.23520        0.04420
C         -2.62350       -0.29730       -1.02460
C         -1.92650       -2.04530        0.03970
O         -1.58660       -2.91730       -1.00200
H          1.06240        1.84650       -0.09140
H         -0.46660        1.89680       -0.97790
H         -0.46600        1.98260        0.78760
H          0.45300       -0.46020       -0.85660
H          0.45420       -0.37360        0.89480
H         -2.39390       -0.77980        2.09460
H         -2.98350        0.67880        1.20430
H         -4.27570       -1.62360        0.06000
H         -3.02630        0.71770       -1.07700
H         -2.48170       -0.68750       -2.03870
H         -1.70170       -2.58700        0.96320
H         -1.80500       -2.50600       -1.84440
