12
gdb 4675	7.65149	1.31801	1.12434	1.4957	59.47	-0.2249	-0.0531	0.1718	952.4057	0.085044	-414.712214	-414.70561	-414.704666	-414.743045	24.113
O          0.07210        1.36490       -0.04440
C          0.06480        0.02160       -0.08130
C          0.01360       -0.77930       -1.18230
N          0.03060       -2.08280       -0.66570
C         -0.00580       -3.27580       -1.38760
O          0.01180       -4.36510       -0.88090
C          0.09060       -1.96720        0.70550
N          0.11230       -0.71790        1.08400
H          0.11360        1.61430        0.88730
H         -0.03130       -0.57620       -2.23690
H         -0.05210       -3.09560       -2.47590
H          0.11440       -2.83890        1.33900
