19
gdb 13762	3.06767	1.45992	1.17164	1.5334	78.03	-0.2447	0.0369	0.2816	1098.5798	0.163564	-327.873307	-327.864226	-327.863282	-327.90687	33.725
C         -0.01470        1.42830       -0.27400
C          0.05770       -0.02350        0.21810
C          0.68990       -0.12680        1.61250
C         -1.32260       -0.64720        0.21480
N         -1.85870       -1.08150       -1.07660
C         -1.55660       -2.10540       -0.04330
C         -0.48850       -3.02990       -0.30930
C          0.39590       -3.82340       -0.49460
H          0.98340        1.87530       -0.32210
H         -0.46000        1.47770       -1.27200
H         -0.62130        2.04520        0.40070
H          0.67030       -0.59670       -0.48680
H          0.09220        0.41030        2.35910
H          0.77270       -1.17010        1.93220
H          1.69360        0.31000        1.61850
H         -2.02290       -0.19210        0.91770
H         -2.86440       -0.93870       -1.12100
H         -2.40620       -2.54760        0.47340
H          1.17730       -4.51990       -0.67280
