16
gdb 20237	4.22844	2.65626	2.30242	1.6274	65.54	-0.2349	0.0979	0.3327	660.0824	0.133889	-346.553667	-346.548484	-346.54754	-346.582609	22.271
C         -0.02770        1.59250       -0.00490
O          1.33950        2.04350       -0.03240
C          2.15740        0.89140        0.02040
C          2.10190        0.06810        1.31500
C          0.67830       -0.50790        1.30290
C          1.79070       -1.20990        0.56620
C          1.41960       -0.29720       -0.65310
C          0.05680        0.06440        0.01690
H         -0.53260        1.99060        0.88490
H         -0.54460        1.97760       -0.89430
H          3.15560        1.14210       -0.33990
H          2.65690        0.19980        2.23440
H          0.18130       -0.79910        2.21910
H          2.20100       -2.20390        0.65020
H          1.51260       -0.51840       -1.71310
H         -0.82430       -0.46470       -0.34710
