22
gdb 6807	6.42249	0.65417	0.61815	2.3805	76.42	-0.2496	0.0715	0.3211	1856.0025	0.197593	-387.334199	-387.323661	-387.322717	-387.370339	36.75
C          0.02090        1.39610       -0.02460
O          0.02230       -0.00930       -0.02040
C         -1.27640       -0.56070        0.00520
C         -1.16360       -2.07840        0.01340
C         -2.52670       -2.77380        0.05320
C         -2.42740       -4.30390       -0.02260
C         -3.79360       -4.98070        0.09330
O         -1.74250       -4.72760       -1.20020
H          1.06260        1.72640       -0.04270
H         -0.49560        1.80400       -0.90890
H         -0.46650        1.80930        0.87350
H         -1.82380       -0.20740        0.89780
H         -1.85350       -0.22180       -0.87430
H         -0.61300       -2.40440       -0.87420
H         -0.56460       -2.37930        0.88160
H         -3.06570       -2.49960        0.96990
H         -3.15190       -2.42390       -0.78310
H         -1.78660       -4.65290        0.79740
H         -4.46230       -4.64540       -0.70990
H         -3.68720       -6.06620        0.01730
H         -4.27620       -4.74340        1.04700
H         -2.29220       -4.49080       -1.95590
