22
gdb 7966	3.17431	1.54816	1.09776	0.1439	85.76	-0.2145	0.039	0.2534	1166.2272	0.19968	-313.107591	-313.098416	-313.097472	-313.140908	34.435
C         -0.72020        1.29610       -0.02270
C          0.18380        0.06500        0.01170
C          1.20910       -0.01930       -1.14560
C          2.40410       -0.72010       -0.53170
C          3.50790       -1.22890       -1.40600
C          2.31730       -0.74650        0.80590
C          3.30020       -1.29210        1.79480
C          1.05120       -0.06740        1.28750
H         -0.12890        2.21770        0.03390
H         -1.30820        1.33510       -0.94620
H         -1.42270        1.30020        0.81800
H         -0.44710       -0.83080       -0.04700
H          0.81010       -0.54640       -2.02180
H          1.49460        0.98380       -1.50160
H          3.94430       -0.41570       -2.00150
H          4.31620       -1.69620       -0.83830
H          3.13150       -1.96780       -2.12570
H          4.17600       -1.73940        1.31830
H          3.65460       -0.50390        2.47270
H          2.83580       -2.05730        2.43070
H          1.28580        0.92010        1.71660
H          0.54370       -0.62760        2.08330
