17
gdb 3091	3.58017	1.97506	1.61217	3.4656	65.88	-0.2409	-0.0154	0.2255	840.4652	0.146881	-309.72185	-309.713874	-309.71293	-309.75387	28.598
C         -0.04610        1.56290        0.14010
C          0.08520        0.06240       -0.02410
C          0.55670       -0.60090       -1.27960
C          0.95740        0.15120       -2.53250
C          1.43860       -0.66480       -0.02320
C          2.71650        0.06980        0.06870
O          3.68890       -0.34710        0.65430
H          0.69010        2.12600       -0.43690
H         -1.03830        1.89110       -0.18820
H          0.06840        1.85110        1.19010
H         -0.67590       -0.48720        0.52420
H          0.08310       -1.55500       -1.49710
H          1.40020        1.12760       -2.32640
H          1.68450       -0.42340       -3.11550
H          0.08020        0.31790       -3.16700
H          1.47720       -1.61760        0.49470
H          2.75050        1.05740       -0.44030
