16
gdb 9463	2.60713	1.90813	1.69396	2.2023	66.31	-0.2476	-0.0505	0.1971	872.2159	0.127885	-383.76341	-383.755101	-383.754156	-383.796431	29.481
C         -0.12590        1.76040        0.36380
C          0.02780        0.27360        0.05140
C          0.73480       -0.18900       -1.25660
C          1.67430       -1.13500       -0.44840
C          1.19120       -0.44350        0.82450
O          1.58980       -0.34260        1.94520
C         -1.25920       -0.48410        0.31690
O         -1.67450       -1.39480       -0.35390
H          0.83350        2.27660        0.27070
H         -0.83840        2.23750       -0.31690
H         -0.48060        1.90320        1.38940
H          0.07410       -0.68360       -1.96760
H          1.27140        0.62720       -1.74340
H          1.34550       -2.17900       -0.47940
H          2.75020       -1.09720       -0.63270
H         -1.80090       -0.14440        1.22710
