12
gdb 9971	3.24274	1.43601	1.03627	5.5567	64.57	-0.308	-0.0148	0.2932	1043.904	0.082311	-340.367273	-340.359171	-340.358226	-340.400334	27.824
C          0.04210       -1.19730        0.03070
C         -0.01100        0.00050       -0.00840
C         -0.03420        1.46210       -0.03990
C          1.42160        2.02970       -0.03930
C          1.45660        3.48120        0.11100
N          1.47640        4.62760        0.24860
C         -0.79130        1.95500       -1.20210
N         -1.37690        2.34510       -2.11720
H          0.07210       -2.25930        0.06180
H         -0.53980        1.83460        0.86020
H          1.96480        1.56730        0.78970
H          1.92480        1.74000       -0.96590
