12
gdb 21646	7.24327	1.36516	1.14989	1.8177	67.2	-0.2165	-0.03	0.1865	955.7881	0.08562	-373.697737	-373.690808	-373.689864	-373.728591	26.021
N         -0.05970        1.35160        0.14940
C          0.00550       -0.02120        0.05200
N         -1.08010       -0.79250        0.01280
N         -0.53210       -2.03340       -0.01180
C          0.81760       -1.96080        0.00400
N          1.19300       -0.68530        0.04390
C          1.64900       -3.10300       -0.01900
C          2.33090       -4.09380       -0.04010
H          0.76310        1.81540       -0.20580
H         -0.92200        1.74800       -0.19410
H         -1.11970       -2.84970       -0.04230
H          2.94510       -4.96050       -0.05730
