14
gdb 1759	4.65386	1.96309	1.74562	4.5999	58.55	-0.2796	0.0312	0.3108	748.8023	0.112273	-324.575989	-324.568524	-324.567579	-324.60712	26.893
C         -0.09880        1.54510       -0.03830
C         -0.01020        0.02810        0.01490
C          1.34000       -0.65390       -0.22110
C          0.74100       -0.64280        1.15520
O          1.24710        0.20980        2.13180
C         -1.17410       -0.67090       -0.47090
N         -2.10990       -1.22790       -0.86180
H          0.77860        1.98460        0.43720
H         -0.15820        1.89170       -1.07370
H         -0.98620        1.89850        0.49390
H          1.35890       -1.58350       -0.77760
H          2.17080        0.01860       -0.40560
H          0.31740       -1.57480        1.52610
H          2.10140       -0.13250        2.41570
