14
gdb 5170	5.46653	1.51631	1.19553	1.7797	63.78	-0.2179	-0.0413	0.1766	939.4028	0.108417	-378.774228	-378.767257	-378.766313	-378.806777	24.894
O         -0.34000        2.32670        0.82080
C          0.35230        1.42210        0.41630
C          1.27900        1.46800       -0.77130
C          1.36850        2.74900       -1.54050
N          2.13550        2.93150       -2.59580
C          1.91420        4.23120       -2.98520
C          1.00540        4.83530       -2.15570
N          0.66390        3.87420       -1.23450
H          0.34350        0.43840        0.93270
H          2.27390        1.16830       -0.40870
H          0.98380        0.64170       -1.43550
H          2.42080        4.65600       -3.83830
H          0.58120        5.82510       -2.13160
H          0.02110        3.93400       -0.45880
