21
gdb 1687	3.87789	1.6728	1.25833	1.3709	70.78	-0.2616	0.0786	0.3403	1008.5876	0.192855	-312.12438	-312.114895	-312.11395	-312.158274	34.23
C         -0.01890        1.52780        0.05990
C         -0.02870       -0.00780       -0.01290
C         -1.48290       -0.50660        0.04390
C          0.73970       -0.53120       -1.25340
C          2.17510        0.01260       -1.33690
C          0.77180       -2.06370       -1.29960
O          1.41100       -2.46370       -2.50640
H          0.99070        1.93400        0.15490
H         -0.47360        1.96480       -0.83760
H         -0.59590        1.87430        0.92350
H          0.49250       -0.38570        0.88020
H         -2.02770       -0.22820       -0.86640
H         -1.55580       -1.59120        0.15770
H         -2.00870       -0.05630        0.89220
H          0.19530       -0.20180       -2.15080
H          2.71390       -0.48190       -2.14720
H          2.19580        1.08900       -1.52270
H          2.71910       -0.17810       -0.40300
H          1.31770       -2.44290       -0.41820
H         -0.24620       -2.47280       -1.25880
H          1.44340       -3.42410       -2.52300
