16
gdb 13699	4.44388	0.93437	0.81747	2.4065	71.03	-0.2551	0.0104	0.2656	1373.5861	0.128091	-383.682684	-383.673655	-383.672711	-383.717822	30.973
C         -0.43430        1.42800        0.22980
C          0.03940        0.00710        0.08400
O          1.39120       -0.19680       -0.31560
C          1.01440       -0.62210        1.00780
C          1.58210        0.08140        2.12470
C          2.06730        0.64610        3.07320
C          2.60800        1.34240        4.23970
O          1.78340        2.40220        4.70320
H          0.28690        2.02420        0.79250
H         -0.57170        1.88210       -0.75680
H         -1.39770        1.45540        0.75000
H         -0.66560       -0.67510       -0.39630
H          0.97100       -1.70550        1.12040
H          2.80850        0.60910        5.03730
H          3.56950        1.80220        3.98610
H          0.90270        2.04090        4.84840
