11
gdb 21373	5.5509	2.27952	1.61593	2.8529	57.61	-0.2353	-0.0348	0.2005	696.2541	0.075762	-393.573283	-393.568098	-393.567154	-393.602404	20.246
N         -0.03300        1.34850        0.01000
C          1.29020        1.78540       -0.00030
N          2.18920        0.84210       -0.01450
C          1.43140       -0.32400       -0.01360
C          1.44340       -1.68590       -0.02140
O          0.16860       -2.13260       -0.01140
N         -0.75450       -1.06230        0.00370
C          0.04190       -0.02350        0.00170
H         -0.85610        1.92530        0.02170
H          1.51150        2.84430        0.00350
H          2.20340       -2.44980       -0.03310
