13
gdb 971	3.69328	3.43506	1.79975	2.7987	56.22	-0.1912	0.0328	0.224	667.3045	0.103236	-340.681309	-340.674722	-340.673778	-340.711601	24.024
C         -0.03770        1.55040        0.12150
C          0.01450        0.06840       -0.00680
C          0.05570       -0.76590       -1.09630
O          0.05770       -0.38450       -2.39670
N          0.09670       -2.08320       -0.73840
C          0.08120       -2.07730        0.57980
N          0.03220       -0.81340        1.06970
H          0.82870        1.95720        0.65890
H         -0.04370        1.99340       -0.87700
H         -0.93980        1.89630        0.64250
H          0.09140       -1.19840       -2.91300
H          0.10370       -2.94890        1.21570
H          0.01200       -0.55170        2.04080
