14
gdb 7948	3.76825	1.78953	1.25907	1.8839	60.38	-0.2628	-0.0159	0.2469	897.3132	0.108678	-415.914166	-415.907123	-415.906178	-415.945689	26.419
O          0.17570        1.32790        0.29380
C          0.00920       -0.03930        0.02950
C         -1.45900       -0.44350       -0.16130
C         -1.44000       -1.44990       -1.30940
O         -2.31750       -2.17980       -1.68910
N         -0.17450       -1.35750       -1.89680
C          0.67510       -0.45220       -1.28250
N          1.79070        0.03200       -1.63890
H          1.03900        1.56410       -0.07520
H          0.46090       -0.65340        0.82670
H         -1.93850       -0.87040        0.71990
H         -2.03920        0.43040       -0.47620
H          0.04210       -1.86500       -2.74290
H          2.11310       -0.30870       -2.54430
