19
gdb 6281	3.01076	1.42509	1.02324	3.5945	72.77	-0.2788	0.0218	0.3006	1175.6675	0.162485	-365.079893	-365.070091	-365.069147	-365.117626	34.426
C         -0.76740        1.43520        0.43350
C         -0.06280        0.13490        0.04430
C          0.87850       -0.36090        1.13620
O         -0.98960       -0.93830       -0.18830
C         -1.60840       -0.99150       -1.44990
C         -1.99440       -2.44720       -1.72670
C         -2.81290       -0.12670       -1.52760
N         -3.75960        0.53240       -1.60040
H         -0.02550        2.21330        0.64030
H         -1.42570        1.79880       -0.35840
H         -1.36960        1.28300        1.33440
H          0.51250        0.29680       -0.88190
H          0.32050       -0.55530        2.05740
H          1.37010       -1.28800        0.83030
H          1.64530        0.38930        1.34960
H         -0.91500       -0.64190       -2.23140
H         -1.09050       -3.06010       -1.72760
H         -2.66620       -2.80900       -0.94520
H         -2.49520       -2.53730       -2.69380
