12
gdb 21472	8.34667	1.23962	1.08391	2.8862	59.03	-0.2519	-0.0205	0.2314	996.5791	0.085947	-410.831592	-410.824865	-410.82392	-410.863533	23.235
N         -0.06560        1.26380        0.18000
C         -0.01750        0.02530       -0.02990
O         -1.15350       -0.70890        0.18050
C         -1.08290       -2.05520        0.09070
N          0.04100       -2.76250        0.14760
N         -0.40730       -4.01360        0.03440
N         -1.71480       -4.16900       -0.07760
C         -2.18130       -2.92100       -0.04680
H          0.83460        1.68690       -0.03800
H          0.82460       -0.57650       -0.37730
H          0.22280       -4.79850        0.04650
H         -3.23220       -2.69850       -0.11950
