20
gdb 19550	3.81744	1.70709	1.57477	0.4773	78.47	-0.2334	0.091	0.3244	934.3559	0.17846	-311.826482	-311.81913	-311.818186	-311.85804	29.033
C         -0.30050        1.51450        0.02150
C          0.08740        0.02930        0.05260
C          0.77900       -0.43360       -1.18920
C          0.29400       -0.72910       -2.59210
C          1.35440        0.17200       -3.21760
C          2.15070       -0.02870       -1.89980
C          2.53040       -1.53400       -1.91270
C          1.03530       -1.80420       -1.77240
H          0.58300        2.14970       -0.10210
H         -0.98040        1.72420       -0.81050
H         -0.79820        1.81220        0.94970
H          0.72590       -0.16180        0.92640
H         -0.81300       -0.58220        0.19880
H         -0.72670       -0.89210       -2.91670
H          1.84010       -0.14290       -4.14960
H          0.99310        1.19900       -3.32260
H          2.86000        0.72260       -1.55670
H          3.06280       -1.91120       -2.79470
H          3.07190       -1.82450       -1.00770
H          0.54170       -2.73180       -1.50830
