14
gdb 15516	3.73513	1.93194	1.30475	6.71	60.06	-0.2502	-0.0112	0.239	877.4547	0.109155	-415.924733	-415.917589	-415.916645	-415.956506	25.26
O         -0.19240        0.03770       -0.26530
C         -0.03220        1.22340       -0.16020
N          1.17400        1.88610       -0.01230
C          1.25740        3.33550        0.16730
C          2.74460        3.62160       -0.11500
N          3.34640        2.34400        0.22730
C          2.46290        1.28830        0.07630
O          2.73060        0.11860        0.04320
H         -0.86880        1.95350       -0.18210
H          0.59220        3.86400       -0.51890
H          0.99590        3.61620        1.19460
H          2.90390        3.88770       -1.16950
H          3.12670        4.43400        0.50790
H          4.31500        2.14690        0.03140
