16
gdb 7910	3.44823	1.71172	1.20373	4.6352	68.85	-0.2351	-0.0422	0.1929	974.7239	0.129695	-383.780514	-383.772534	-383.771589	-383.812944	29.196
C          0.06180        1.48770        0.02310
C          0.00630       -0.00120       -0.05580
C         -0.10350       -0.76750       -1.15030
C         -0.08700       -2.20380       -0.79910
O         -0.24680       -3.14180       -1.54510
C          0.17920       -2.28560        0.71030
C          0.06870       -0.84320        1.21700
O          1.18950       -0.52660        2.03740
H          0.99320        1.80430        0.50760
H          0.01100        1.95400       -0.96300
H         -0.76300        1.87910        0.63320
H         -0.19450       -0.42340       -2.17380
H         -0.50110       -2.98960        1.19380
H          1.20070       -2.64330        0.87460
H         -0.86290       -0.69900        1.78740
H          0.98880        0.27190        2.53490
