13
gdb 16261	3.39623	1.98587	1.42112	3.5828	67.24	-0.2412	-0.0265	0.2147	847.7916	0.094155	-361.395395	-361.388362	-361.387418	-361.426603	26.514
O         -0.07160        0.01200       -0.02570
C         -0.04660        1.20000        0.05910
C         -1.14230        2.29830        0.18000
C         -0.03140        3.32460       -0.07070
N          0.89910        3.17570        1.04180
C          1.04260        2.25250       -0.15650
C          2.24310        2.17570       -0.90340
C          3.25780        2.07730       -1.54270
H         -1.86070        2.19760       -0.63820
H         -1.66290        2.38340        1.13550
H         -0.08560        4.22470       -0.66840
H          1.64700        3.86260        0.93340
H          4.15130        1.98850       -2.11020
