17
gdb 2227	4.61705	2.73373	2.15762	0.2494	68.57	-0.2226	0.0252	0.2478	678.0911	0.149559	-272.587059	-272.580724	-272.57978	-272.616667	25.381
C         -0.03460        1.50720        0.02130
C          0.05280       -0.00040        0.00350
C         -0.81680       -0.80510        0.93620
C          0.69040       -0.79840        1.13560
C          1.41450       -1.92290        0.47730
C          1.26850       -1.89300       -0.84970
C          0.46950       -0.68930       -1.30380
H          0.90530        1.96390       -0.31020
H         -0.82970        1.86840       -0.64250
H         -0.25140        1.88200        1.02680
H         -1.41790       -0.24450        1.64600
H         -1.27190       -1.72530        0.58300
H          1.09870       -0.31970        2.01970
H          1.95320       -2.68180        1.03390
H          1.65070       -2.63440       -1.54230
H         -0.39530       -0.97120       -1.91880
H          1.07950       -0.01820       -1.92610
