17
gdb 6513	3.00391	1.84506	1.36357	4.0863	69.41	-0.2891	0.0086	0.2977	951.4057	0.138884	-363.872522	-363.863426	-363.862482	-363.905669	32.752
C         -0.04460        1.53530       -0.06350
C         -0.06370        0.02660        0.06400
C         -1.24280       -0.64280       -0.60980
O          1.19940       -0.63240       -0.13100
C          0.64390       -0.65430        1.18930
C          1.41790        0.05360        2.28350
C          0.15180       -1.96130        1.61170
N         -0.23130       -2.98460        1.98930
H          0.87090        1.97450        0.33180
H         -0.11830        1.81000       -1.12090
H         -0.90220        1.97550        0.45520
H         -1.23090       -0.41310       -1.68020
H         -1.21510       -1.72640       -0.48820
H         -2.18470       -0.26860       -0.19590
H          1.78760        1.01950        1.94140
H          0.78440        0.20380        3.16280
H          2.27500       -0.55630        2.58330
