14
gdb 10968	2.77628	2.61471	1.9415	2.0156	62.35	-0.2346	-0.0019	0.2327	734.6318	0.106603	-382.521049	-382.514215	-382.513271	-382.552044	26.072
O         -0.09320        1.45480       -0.06010
C         -0.01320        0.07650       -0.02260
C         -1.31130       -0.77440       -0.05600
C         -0.39090       -1.93520        0.44110
C          0.64640       -1.99560       -0.66510
C          0.88490       -0.70700       -0.97220
C          0.31560       -0.79060        1.28640
O          0.79070       -0.63400        2.36000
H          0.77930        1.82180        0.11850
H         -2.05130       -0.45310        0.68330
H         -1.75230       -0.91480       -1.04540
H         -0.77820       -2.84890        0.88130
H          1.15710       -2.88570       -1.00410
H          1.62690       -0.27500       -1.62970
