16
gdb 12751	3.26175	1.83847	1.48257	2.0648	70.81	-0.2452	0.0452	0.2904	898.8378	0.128363	-346.537382	-346.529594	-346.52865	-346.56924	29.463
C         -0.11750        1.50630        0.00790
C          0.13690        0.03590        0.02900
O         -0.71580       -0.79830        0.81510
C          0.70090       -0.89520        1.02260
C          1.23960       -1.84230       -0.05320
C          0.67120       -0.84410       -1.14030
C         -0.28870       -1.32650       -2.11130
C         -1.08960       -1.72180       -2.91640
H          0.75040        2.04820       -0.38150
H         -0.97540        1.73620       -0.63360
H         -0.33710        1.86790        1.01580
H          1.06680       -0.72110        2.02810
H          2.32860       -1.91340       -0.08770
H          0.79770       -2.83990       -0.04890
H          1.50050       -0.33560       -1.64360
H         -1.80120       -2.07420       -3.62120
