15
gdb 13479	3.45505	1.87388	1.24703	1.4876	64.93	-0.2506	-0.0041	0.2466	925.854	0.120231	-396.018333	-396.010681	-396.009737	-396.050673	27.88
N         -0.05550        1.34140       -0.36640
C          0.05200       -0.00210       -0.05410
O          1.10090       -0.57380        0.15480
N         -1.16690       -0.65960        0.03430
C         -1.39870       -2.09270        0.26120
C         -2.92110       -1.76550        0.32350
C         -2.52420       -0.30080        0.17410
N         -3.18670        0.77210        0.21950
H          0.83560        1.76520       -0.57950
H         -0.80910        1.61750       -0.97860
H         -1.07050       -2.72240       -0.56890
H         -0.95900       -2.45560        1.19290
H         -3.51070       -2.15440       -0.50830
H         -3.42110       -2.00050        1.26380
H         -2.59690        1.60220        0.16520
