15
gdb 18544	4.2905	2.01612	1.61215	2.7492	67.05	-0.2534	0.0043	0.2577	797.7564	0.121188	-362.674518	-362.668369	-362.667425	-362.704784	24.134
N         -0.09490        1.21530       -0.61290
C         -0.05550        0.07030       -0.10720
O          0.97040       -0.59880        0.53350
C          0.17150       -1.82570        0.64500
C         -0.17140       -2.19010        2.09270
C         -1.50130       -1.50510        2.31650
C         -1.98050       -0.92490        1.21560
C         -1.04670       -1.07510        0.04170
H          0.79790        1.70040       -0.50730
H          0.63570       -2.62120        0.06060
H         -0.24020       -3.27650        2.23280
H          0.61310       -1.83270        2.77060
H         -1.99220       -1.49820        3.28330
H         -2.90770       -0.36980        1.14520
H         -1.50640       -1.42730       -0.88330
