17
gdb 4456	3.47908	1.74725	1.18186	1.3325	73.53	-0.1733	0.0465	0.2198	1017.9641	0.141659	-363.905498	-363.896893	-363.895949	-363.9383	31.278
C          0.16350        1.45610        0.02040
C         -0.05590       -0.01270        0.01740
C         -1.15010       -0.81810        0.05150
C         -2.58900       -0.40930        0.11270
C         -0.66070       -2.17730        0.01050
C          0.69510       -2.08580       -0.03950
N          1.72640       -3.01740       -0.01170
O          1.08950       -0.79150       -0.03620
H          0.76210        1.77820        0.88150
H          0.68680        1.79400       -0.88280
H         -0.79540        1.97730        0.06570
H         -3.15070       -0.78950       -0.74890
H         -3.07920       -0.80330        1.01100
H         -2.70170        0.67820        0.12590
H         -1.24880       -3.08170        0.01780
H          1.43140       -3.92900       -0.33340
H          2.54000       -2.70640       -0.52830
