18
gdb 14864	2.88966	1.61679	1.14552	3.9463	69.19	-0.2418	-0.0153	0.2264	1064.8288	0.152203	-384.925424	-384.916857	-384.915913	-384.95915	30.201
C          0.22370        1.55460       -0.18150
O         -0.33730        0.31770       -0.56570
C          0.58050       -0.54670       -1.17500
C          1.61860       -1.29920       -0.29580
C          1.27710       -2.58830       -1.08920
C         -0.03220       -1.90630       -1.61630
C         -1.24260       -2.30010       -0.80570
O         -2.28890       -2.65790       -1.28190
H          1.01570        1.43120        0.57180
H          0.64790        2.08950       -1.04540
H         -0.58060        2.15580        0.24790
H          1.07150       -0.05050       -2.02680
H          2.65340       -0.95100       -0.31020
H          1.27500       -1.35420        0.74110
H          1.97630       -2.78400       -1.90440
H          1.15000       -3.50810       -0.51390
H         -0.27290       -2.01700       -2.67440
H         -1.09900       -2.26630        0.29770
