18
gdb 20896	4.59035	1.39299	1.16112	1.8752	75.56	-0.2278	0.0311	0.2589	1084.7639	0.154703	-344.021287	-344.01299	-344.012046	-344.054842	29.718
C          0.17100        1.51830        0.08530
C         -0.09350        0.02750       -0.12880
N          0.66600       -0.52200       -1.23830
C          1.75610       -1.32570       -1.19220
C          2.15710       -1.53320       -2.49440
C          1.23440       -0.79990       -3.27700
C          1.17310       -0.66510       -4.76650
N          0.33580       -0.18830       -2.50410
H          1.22280        1.69840        0.32690
H         -0.07580        2.07640       -0.82070
H         -0.44310        1.89650        0.90840
H          0.17220       -0.54980        0.76150
H         -1.15460       -0.14440       -0.33350
H          2.14960       -1.68310       -0.25310
H          2.98720       -2.13240       -2.83290
H          1.03440       -1.63720       -5.25260
H          0.33880       -0.01880       -5.04720
H          2.09570       -0.23160       -5.16830
