18
gdb 12271	3.94057	1.41988	1.14665	2.1258	69.28	-0.2237	-0.0234	0.2003	1082.4131	0.151701	-384.938619	-384.929789	-384.928845	-384.97226	31.211
C          0.30420        1.82170       -0.56670
O          0.59450        0.56560        0.02490
C          0.67550       -0.47290       -0.90140
C          0.96120       -1.88100       -0.31360
C         -0.11580       -2.51030       -1.25590
C         -1.09600       -3.54750       -0.72650
C         -0.63610       -1.07600       -1.46770
O         -1.70780       -0.61780       -1.74680
H          1.08460        2.11150       -1.28780
H         -0.66490        1.81020       -1.07840
H          0.27980        2.55520        0.24220
H          1.36970       -0.23090       -1.72590
H          1.98300       -2.25000       -0.40280
H          0.64670       -1.91510        0.73260
H          0.35190       -2.86230       -2.18420
H         -1.56610       -3.20360        0.20020
H         -1.89130       -3.73000       -1.45510
H         -0.59460       -4.49850       -0.52170
