14
gdb 4874	6.74009	1.22994	1.05361	3.4502	60.18	-0.1965	0.044	0.2404	1043.7849	0.108164	-415.888651	-415.880956	-415.880012	-415.92125	27.558
O          0.01490        1.37080        0.35640
C          0.00910       -0.00000       -0.00220
C         -1.40940       -0.46170       -0.02390
C         -2.59410        0.20610       -0.12420
N         -3.66790       -0.67620       -0.11730
C         -3.11940       -1.85360       -0.01650
O         -3.74690       -3.04250        0.02880
N         -1.76300       -1.80950        0.04560
H          0.87460        1.73380        0.12550
H          0.48240       -0.14830       -0.98860
H          0.58960       -0.60730        0.71620
H         -2.74000        1.27160       -0.19030
H         -4.69080       -2.84690       -0.02610
H         -1.15150       -2.60180        0.14560
