18
gdb 12389	2.90824	2.12738	1.32714	2.701	68.18	-0.2296	-0.0198	0.2098	938.9512	0.15408	-384.971381	-384.963589	-384.962645	-385.003555	29.22
C          0.00850        1.53730       -0.05930
C          0.10020        0.02470        0.02430
O          0.74560       -0.44920       -1.15610
C          0.85220       -1.86070       -1.21730
C          1.75700       -2.38800       -0.10610
C          1.21950       -1.94010        1.26450
C          0.84850       -0.46370        1.27790
O          1.09090        0.26490        2.21060
H          1.00860        1.97380       -0.11780
H         -0.55600        1.82710       -0.94870
H         -0.48450        1.93470        0.82960
H         -0.91690       -0.41210        0.07710
H         -0.14880       -2.32230       -1.14870
H          1.26110       -2.09170       -2.20510
H          1.82720       -3.48050       -0.15450
H          2.76590       -1.98790       -0.25690
H          0.29550       -2.49500        1.48630
H          1.91960       -2.13350        2.08080
