20
gdb 9662	3.26222	1.31184	1.09471	2.7866	76.97	-0.2465	-0.0194	0.2272	1170.6268	0.17467	-349.016733	-349.007282	-349.006338	-349.050967	33.831
C          0.27730        1.53950       -0.04300
C         -0.15510        0.07700       -0.21190
C          0.65080       -0.62870       -1.28230
C          1.94440       -1.30960       -0.98770
C          0.73500       -2.15890       -1.37910
C          0.07070       -3.06810       -0.36430
C          0.76270       -2.67820       -2.77440
O          1.27830       -2.11660       -3.71310
H          1.33160        1.60710        0.24430
H          0.15220        2.09810       -0.97670
H         -0.31710        2.03920        0.72800
H         -0.05160       -0.44270        0.74700
H         -1.22140        0.03980       -0.46930
H          0.60670       -0.15870       -2.26220
H          2.74200       -1.24180       -1.71900
H          2.26230       -1.38360        0.04800
H          0.14870       -2.67120        0.64970
H         -0.99380       -3.20830       -0.58400
H          0.54200       -4.05760       -0.36220
H          0.25430       -3.66040       -2.91200
