15
gdb 1622	3.83134	2.09958	1.4405	3.9686	57.69	-0.2705	0.0278	0.2983	825.7495	0.124257	-341.839596	-341.831335	-341.83039	-341.871873	29.255
C          0.04510        1.56440        0.04750
C          0.04320        0.04280       -0.05510
O          0.83060       -0.56810        0.94960
C         -1.40180       -0.52630       -0.03790
N         -2.16320       -0.03170       -1.18670
C         -1.37770       -2.00260        0.04600
N         -1.42080       -3.15790        0.04830
H          1.06950        1.93980       -0.01450
H         -0.55480        2.00970       -0.74840
H         -0.38030        1.88440        1.00790
H          0.50610       -0.26460       -1.00130
H          0.57790       -0.19500        1.80160
H         -1.89370       -0.15550        0.87110
H         -1.80900       -0.45750       -2.03940
H         -3.13480       -0.31640       -1.11030
