20
gdb 8112	3.06328	1.84595	1.45167	1.5996	75.33	-0.2364	0.0757	0.3121	965.9186	0.176337	-348.979917	-348.971412	-348.970468	-349.01203	32.836
C         -0.29860        1.56990        0.09420
C          0.02240        0.07950        0.05800
C          1.14140       -0.46080       -0.89220
C          1.77970       -1.21550        0.28720
C          2.31680       -2.61690        0.20850
C          2.18260       -0.22840        1.34120
O          2.63460        1.07190        1.06600
C          0.73310       -0.57970        1.25020
H          0.60130        2.16090        0.27240
H         -0.74860        1.89230       -0.85220
H         -1.01640        1.79290        0.89200
H         -0.89710       -0.48080       -0.14350
H          0.76000       -1.12350       -1.67270
H          1.77840        0.29920       -1.35520
H          3.22030       -2.66370       -0.41320
H          2.57850       -3.00040        1.20050
H          1.58340       -3.30340       -0.23040
H          2.67790       -0.68920        2.19880
H          3.50960        1.00200        0.66930
H          0.22180       -1.02530        2.09780
