24
gdb 10219	2.72047	1.14675	0.86691	1.1355	82.97	-0.2515	0.086	0.3375	1440.4565	0.221253	-351.404922	-351.394056	-351.393112	-351.441459	38.015
C          0.25290        2.12020       -0.51920
C         -0.01120        0.62130       -0.34570
C          0.71370       -0.27530       -1.37290
C          2.22800       -0.36390       -1.07960
C          3.10860       -0.73650       -2.27790
C          0.03510       -1.64730       -1.39060
O          0.57100       -2.46270       -2.41200
C         -0.02530       -3.73520       -2.46200
H          1.31480        2.36690       -0.42160
H         -0.07660        2.46430       -1.50590
H         -0.28810        2.70210        0.23370
H          0.27650        0.31060        0.66810
H         -1.09300        0.44950       -0.41800
H          0.57460        0.16690       -2.37000
H          2.56830        0.60130       -0.68660
H          2.38330       -1.08650       -0.26630
H          4.16540       -0.75690       -1.99090
H          2.83620       -1.71340       -2.67900
H          3.00000       -0.00170       -3.08400
H          0.16130       -2.13850       -0.40800
H         -1.05070       -1.52330       -1.54790
H          0.12450       -4.29570       -1.52520
H         -1.10930       -3.67060       -2.64970
H          0.44200       -4.28650       -3.28170
