20
gdb 18728	2.96143	2.09695	1.42128	1.4664	73.86	-0.2561	0.0743	0.3304	927.7649	0.179721	-349.006689	-348.999287	-348.998342	-349.037955	29.788
O         -0.06300        1.43680       -0.00920
C         -0.00800        0.01190        0.02620
C          0.81780       -0.50420        1.21230
C          0.69710       -2.02680        1.33520
C         -0.74120       -2.44590        1.68230
C         -1.80000       -1.72670        0.84320
C         -2.29710       -0.36230        1.25520
C         -1.43190       -0.49780        0.03070
H          0.84160        1.76210       -0.06820
H          0.47140       -0.36120       -0.89590
H          1.86550       -0.20990        1.07050
H          0.47730       -0.01410        2.13300
H          0.99210       -2.48410        0.38110
H          1.39120       -2.40970        2.09120
H         -0.84600       -3.52750        1.54720
H         -0.92340       -2.25500        2.74760
H         -2.54100       -2.37790        0.39000
H         -3.34500       -0.12180        1.11330
H         -1.85930        0.08480        2.14190
H         -1.93740       -0.37500       -0.92240
