14
gdb 1854	5.68569	2.31316	1.79424	3.4684	62.02	-0.2446	-0.029	0.2155	705.8206	0.114542	-324.606977	-324.60073	-324.599786	-324.636954	23.441
C         -0.03400        1.55110       -0.02870
C          0.03100        0.02570        0.01600
O          0.77950       -0.46790       -1.10930
C          1.83110       -1.23970       -0.67500
N          2.67190       -1.81860       -1.42450
C          1.79230       -1.26500        0.79370
C          0.75300       -0.54230        1.20820
H          0.96940        1.97930        0.04420
H         -0.49060        1.88100       -0.96530
H         -0.63830        1.92840        0.80240
H         -0.98720       -0.38380       -0.05880
H          2.46300       -1.63210       -2.40660
H          2.52150       -1.80380        1.38010
H          0.43790       -0.35680        2.22670
