16
gdb 16465	3.24454	2.76222	1.81948	1.5287	63.32	-0.2375	0.0699	0.3074	744.1444	0.13101	-383.673432	-383.667188	-383.666244	-383.703385	25.283
C          0.00840        1.51690       -0.01710
C          0.04390        0.01140       -0.03790
C          0.46750       -0.74300       -1.29080
O          0.35630       -2.12020       -0.86990
C         -0.07920       -1.99950        0.45700
C          0.60920       -0.80620        1.17890
O         -0.59980       -0.55240        1.96650
C         -1.10170       -0.83880        0.62020
H          0.99750        1.94120       -0.22190
H         -0.68350        1.90910       -0.77050
H         -0.31940        1.86220        0.96710
H         -0.19340       -0.56250       -2.14770
H          1.49990       -0.53010       -1.59480
H         -0.22000       -2.96140        0.94420
H          1.57610       -0.73200        1.67760
H         -2.17840       -0.80360        0.45170
