17
gdb 9390	3.29954	1.12254	0.93921	4.0177	65.36	-0.2725	0.0096	0.2821	1257.2296	0.139926	-400.994113	-400.984635	-400.983691	-401.029602	32.266
C         -1.14880       -0.16050       -0.30610
C          0.30830        0.29410       -0.28440
O          1.11070       -0.32160       -1.28400
C          1.48200       -1.64610       -1.01520
C          2.37210       -2.12050       -2.17450
O          2.92560       -3.39610       -1.92250
C          1.63160       -2.09500       -3.45180
N          1.04070       -2.13570       -4.44380
H         -1.58040       -0.00730       -1.29920
H         -1.25620       -1.21700       -0.04240
H         -1.72920        0.42020        0.41810
H          0.36870        1.36650       -0.49280
H          0.75330        0.12380        0.70880
H          2.06980       -1.72780       -0.08750
H          0.61350       -2.31830       -0.92740
H          3.21750       -1.43030       -2.25800
H          2.22060       -4.05150       -1.97760
