15
gdb 5335	6.32551	1.57399	1.28773	2.0333	69.31	-0.1819	0.0466	0.2284	908.1939	0.120514	-362.655964	-362.649093	-362.648149	-362.686964	26.052
O         -0.13210        1.40180       -0.03530
C          0.06640        0.05010       -0.03820
C          0.00700       -0.72000       -1.19020
N          0.13390       -2.01840       -0.74970
C          0.65940       -3.37280       -0.99920
C          0.79870       -3.51270        0.56430
C          0.35090       -2.06190        0.59270
C          0.31590       -0.78320        1.10310
H         -0.04840        1.71740        0.86860
H         -0.21420       -0.44080       -2.20580
H         -0.04630       -4.04150       -1.50050
H          1.61620       -3.38070       -1.53000
H          0.12750       -4.24200        1.02630
H          1.81960       -3.70510        0.90420
H          0.43590       -0.45650        2.12500
