18
gdb 2001	5.90365	1.56167	1.33416	2.1208	64.8	-0.2291	0.0703	0.2995	936.0565	0.1588	-326.941692	-326.933626	-326.932682	-326.973925	29.445
C          0.20830        1.42850       -0.08940
C          0.00950       -0.08000        0.05990
O          0.53890       -0.55080        1.29780
C         -1.45880       -0.48390       -0.11620
N         -1.60630       -1.92590       -0.22940
C         -1.75920       -2.67410        1.01050
C         -2.91690       -2.47980        0.09540
H          1.25670        1.68670        0.08170
H         -0.07630        1.77310       -1.08860
H         -0.40180        1.97870        0.63880
H          0.59250       -0.60630       -0.70370
H          0.12790       -0.03740        2.00240
H         -2.04830       -0.06230        0.72400
H         -1.84820       -0.03230       -1.03720
H         -1.23800       -3.62570        1.05550
H         -1.76150       -2.11720        1.94480
H         -3.69630       -1.79090        0.41930
H         -3.26210       -3.28520       -0.54680
