14
gdb 16047	3.61407	1.77801	1.49279	3.6511	63.27	-0.25	-0.0043	0.2457	847.8124	0.108398	-378.677276	-378.670395	-378.669451	-378.708283	26.094
O         -0.00700        1.39300       -0.00510
C         -0.05120        0.01390        0.03150
C         -1.32980       -0.78960        0.08150
C         -2.41380       -0.10420       -0.75190
N         -1.45190        0.09140       -1.89260
C         -0.45660       -0.76420       -1.19720
C          0.30220       -1.77050       -1.85510
N          0.91340       -2.59190       -2.39680
H         -0.41170        1.65010       -0.84990
H          0.76700       -0.41510        0.60160
H         -1.48450       -1.59630        0.78610
H         -3.23160       -0.78360       -1.00490
H         -2.82010        0.83170       -0.35680
H         -1.78270       -0.32580       -2.75490
