16
gdb 21187	3.31296	1.8237	1.19634	4.0076	67.51	-0.2069	0.0056	0.2126	987.2506	0.130684	-379.91177	-379.903814	-379.90287	-379.944147	28.779
C         -0.03600        1.42510        0.00070
N         -0.15530       -0.02150        0.06790
C          0.58950       -0.67370        1.04560
C          1.26260       -0.17870        2.12150
O          1.78190       -1.19460        2.84930
N          1.46300       -2.39310        2.23880
C          0.75450       -2.09190        1.17680
C          0.22270       -3.15550        0.27360
H          1.00210        1.77540       -0.12110
H         -0.63260        1.79860       -0.83440
H         -0.43410        1.86640        0.92110
H         -0.08280       -0.46540       -0.83720
H          1.44450        0.81400        2.49770
H         -0.86630       -3.08050        0.18120
H          0.64390       -3.07120       -0.73560
H          0.47620       -4.14130        0.66760
