15
gdb 2850	3.93714	2.04339	1.49925	2.9278	59.33	-0.2424	-0.0177	0.2247	816.2708	0.123194	-345.636611	-345.629092	-345.628148	-345.668551	26.219
C          0.10330        1.05500        0.37050
O         -0.17820        0.02730       -0.56440
C         -1.37680       -0.62160       -0.31920
C         -1.51720       -1.99140       -0.85020
C         -1.42950       -1.79750        0.66930
C         -0.19320       -2.23720        1.35040
O         -0.15590       -2.68360        2.47250
H          1.04000        1.52080        0.05850
H         -0.69040        1.81600        0.38040
H          0.21780        0.65570        1.38780
H         -2.25320        0.02840       -0.30840
H         -2.46660       -2.31210       -1.26150
H         -0.63990       -2.41390       -1.32930
H         -2.33470       -1.91880        1.25410
H          0.73080       -2.12990        0.74050
