18
gdb 10430	2.50494	1.89332	1.4002	3.1255	67.85	-0.2544	-0.0302	0.2241	965.7509	0.151933	-384.928127	-384.91945	-384.918506	-384.962	30.381
C          0.10080        1.52380        0.16290
C         -0.06490        0.02320       -0.10270
C          0.72440       -0.47440       -1.31740
C          2.26460       -0.50140       -1.22460
O          2.29980       -1.93150       -1.42830
C          0.86880       -2.02260       -1.44600
C          0.18200        0.13080       -2.59300
O          0.82840        0.71170       -3.42600
H          1.15080        1.78250        0.33510
H         -0.25130        2.12540       -0.68170
H         -0.46590        1.82700        1.04770
H          0.25740       -0.54880        0.77520
H         -1.12780       -0.21390       -0.24850
H          2.78300        0.04360       -2.01890
H          2.67330       -0.21830       -0.24660
H          0.47040       -2.58050       -0.58750
H          0.49080       -2.47610       -2.37170
H         -0.91640       -0.02070       -2.72370
