19
gdb 8599	4.67538	1.7438	1.65013	0.7605	78.08	-0.2068	0.0766	0.2834	876.8311	0.166456	-327.787848	-327.781129	-327.780185	-327.818217	27.652
C         -0.07410        1.57000        0.00980
N          0.01010        0.12670        0.04330
C         -1.21460       -0.64630        0.48450
C         -0.21570       -1.64990        1.10620
C          0.57630       -2.31130        2.27990
C          1.65960       -1.79680        1.22140
C          0.75470       -2.39300        0.12690
C          0.77240       -0.49810        1.16310
H          0.90380        1.98860       -0.25050
H         -0.78880        1.88440       -0.75830
H         -0.39280        2.01420        0.97250
H         -1.80960       -0.09640        1.23040
H         -1.85940       -0.98750       -0.33180
H          0.54650       -1.79690        3.24380
H          0.51280       -3.39700        2.39830
H          2.74370       -1.90620        1.32380
H          0.67160       -3.48330        0.10800
H          0.84800       -1.96760       -0.87090
H          0.77500        0.12580        2.06900
