12
gdb 3877	7.61247	2.14291	1.68535	5.0898	52.48	-0.2025	0.0433	0.2458	690.7618	0.093063	-352.890573	-352.884197	-352.883253	-352.920347	23.713
N          0.03800        1.36580        0.14290
C          0.00890       -0.02390        0.06560
N         -1.04420       -0.78850        0.08790
N         -0.59310       -2.11420        0.07920
C          0.70760       -2.07750        0.05170
N          1.57850       -3.16190        0.11230
N          1.15990       -0.77770        0.02830
H          0.52090        1.79980       -0.63680
H         -0.91300        1.71410        0.18260
H          1.03740       -4.01840        0.14350
H          2.22300       -3.20170       -0.67020
H          2.09670       -0.46020        0.21130
