15
gdb 16318	3.29886	1.95525	1.41522	3.4994	61.15	-0.2355	0.0009	0.2365	880.6846	0.118635	-399.779631	-399.772193	-399.771249	-399.811545	27.228
C          0.14150        1.40900        0.33160
N          0.02670        0.02000       -0.12440
C         -1.28330       -0.49380       -0.13660
C         -1.97070       -0.96210        1.16150
C         -1.82850       -1.90050        0.02460
O         -2.89160       -1.64050       -0.93250
C         -2.36670       -0.37460       -1.19670
O         -2.70140        0.38310       -2.04750
H          1.19510        1.70050        0.31680
H         -0.43030        2.12550       -0.27540
H         -0.21300        1.47780        1.36460
H          0.46520       -0.09220       -1.03170
H         -1.26180       -1.08550        1.97470
H         -2.95520       -0.59850        1.43660
H         -1.34280       -2.86420       -0.01540
