20
gdb 14272	2.86924	2.47977	1.78783	1.1916	73.76	-0.2465	0.0789	0.3254	829.5628	0.180981	-348.998206	-348.991672	-348.990727	-349.028384	27.335
C         -0.03460        1.53540        0.08430
C          1.51950        1.52330        0.00950
C          1.46960        0.04630        0.50670
C         -0.00540       -0.01900        0.01910
C         -0.13010       -0.61360       -1.38980
O          0.98270       -0.38850       -2.23850
C          1.25990        0.97460       -2.51140
C          2.07530        1.67430       -1.41320
H         -0.38560        1.88250        1.06010
H         -0.58870        2.07480       -0.69050
H          2.03580        2.22340        0.67260
H          2.17330       -0.65770        0.05660
H          1.54060       -0.01500        1.59590
H         -0.72160       -0.53180        0.66910
H         -0.20970       -1.70370       -1.31950
H         -1.05290       -0.24060       -1.86770
H          1.82960        0.98720       -3.44700
H          0.32020        1.51790       -2.69940
H          2.13270        2.73920       -1.67680
H          3.10300        1.29030       -1.43240
