17
gdb 19701	4.50764	1.67681	1.56522	2.7494	66.66	-0.2468	0.0756	0.3224	861.5042	0.143851	-363.783204	-363.776506	-363.775562	-363.81414	26.331
O          0.04990        1.37690        0.19070
C          0.12380       -0.00900       -0.10250
C         -1.26610       -0.62170       -0.06030
C         -1.56530       -2.13350       -0.10520
C         -0.74660       -2.71810        1.07880
C         -1.63110       -1.84880        1.96910
C         -2.69660       -1.78480        0.94340
N         -1.95300       -0.54050        1.27960
H         -0.49520        1.45720        0.98300
H          0.54940       -0.09950       -1.10870
H          0.80420       -0.52210        0.59250
H         -1.90770       -0.07790       -0.76200
H         -1.66500       -2.67910       -1.04150
H         -0.98600       -3.77350        1.23300
H          0.33890       -2.58490        1.08750
H         -1.71840       -1.84020        3.04740
H         -3.77360       -1.88420        0.97100
