16
gdb 6202	3.88531	1.55488	1.46531	4.5536	60.27	-0.2661	0.0123	0.2784	903.4955	0.129806	-420.925833	-420.91813	-420.917185	-420.957659	29.022
C          0.12390        1.51840        0.06800
C         -0.05840        0.00210       -0.01580
O         -1.43050       -0.34790       -0.10570
C          0.77080       -0.60960       -1.17540
O          2.05820       -0.92210       -0.62690
C          1.98620       -1.03670        0.73240
O          2.93260       -1.33820        1.39620
C          0.56580       -0.72240        1.18080
H          1.18260        1.78490        0.14720
H         -0.27230        2.00630       -0.83080
H         -0.40190        1.91720        0.94000
H         -1.85190        0.23420       -0.74690
H          0.28610       -1.52680       -1.52800
H          0.92120        0.07010       -2.01850
H          0.56920       -0.15720        2.11350
H          0.03440       -1.66450        1.35380
