15
gdb 7895	3.55794	1.81397	1.25726	4.7894	64.15	-0.2566	-0.0669	0.1897	935.8436	0.118697	-399.836216	-399.828816	-399.827872	-399.868219	27.21
C         -0.26730        1.50840        0.15430
C          0.10720        0.05470       -0.05790
C          1.00910       -0.23700       -1.26280
C          1.96410       -1.30560       -0.74650
O          2.67610       -2.03140       -1.38090
C          1.84540       -1.26560        0.76960
N          2.57830       -1.91830        1.56330
O          0.85540       -0.40050        1.10850
H          0.63030        2.13060        0.22290
H         -0.87590        1.86520       -0.68230
H         -0.84310        1.62640        1.07600
H         -0.79880       -0.56200       -0.10870
H          0.47490       -0.56620       -2.15520
H          1.60280        0.64620       -1.53110
H          2.32070       -1.72860        2.53470
