16
gdb 11007	4.13401	1.87292	1.57139	4.177	66.23	-0.2549	0.03	0.285	845.5648	0.13157	-379.917893	-379.910834	-379.90989	-379.948999	26.892
C         -0.06730        1.49890        0.02080
C         -0.00720       -0.00590        0.02510
C          0.38520       -0.78160        1.22370
N          1.31810       -0.65920        0.06810
C          1.22880       -1.79720       -0.78080
N          2.19010       -2.57740       -1.00510
O         -0.03480       -1.92730       -1.31410
C         -0.82050       -0.77320       -1.00960
H          0.64700        1.91370        0.73570
H          0.17150        1.89690       -0.97090
H         -1.06910        1.84680        0.29620
H          0.72340       -0.26440        2.11580
H         -0.07250       -1.75230        1.39550
H          1.89990       -3.31100       -1.65150
H         -1.80170       -1.10070       -0.65200
H         -0.95790       -0.17450       -1.91860
