18
gdb 16811	3.53684	1.849	1.386	3.2471	71.48	-0.2339	-0.0072	0.2266	923.8011	0.154892	-347.8331	-347.82584	-347.824896	-347.864392	28.467
C          0.05220        1.59390        0.00330
C          0.01950        0.06490        0.03150
C          0.66000       -0.61820       -1.19830
C          1.21990       -1.95440       -0.68220
O          1.37630       -2.95370       -1.33930
C          1.45910       -1.81730        0.78700
C          2.23450       -0.57260        1.20850
C          0.74210       -0.55300        1.23590
H          1.08250        1.96420       -0.03580
H         -0.47830        1.98460       -0.87120
H         -0.42000        2.01600        0.89680
H         -1.02780       -0.25860        0.08640
H         -0.03590       -0.79410       -2.02060
H          1.48720       -0.02220       -1.60530
H          1.53760       -2.71640        1.38460
H          2.75600       -0.64820        2.15590
H          2.77300       -0.01010        0.45280
H          0.24480       -0.52290        2.19920
