16
gdb 21220	5.36536	1.33156	1.09053	3.1775	68.85	-0.213	0.0092	0.2222	1082.4706	0.130587	-379.9223	-379.914128	-379.913184	-379.955345	28.827
C         -0.02580        1.42740       -0.08390
N         -0.13810       -0.00950        0.10210
C          0.63250       -0.63780        1.05590
N          0.98200       -1.90070        0.90800
O          1.67990       -2.22730        2.08270
C          1.73980       -1.14980        2.87890
C          2.45570       -1.31000        4.17370
C          1.10060       -0.10140        2.29590
H          0.98510        1.76250       -0.36130
H         -0.72030        1.73470       -0.86910
H         -0.31820        1.94830        0.83300
H         -0.19150       -0.54370       -0.75390
H          1.99650       -2.09840        4.77890
H          3.50200       -1.58900        4.01060
H          2.42880       -0.37670        4.73910
H          0.97420        0.89230        2.69040
