14
gdb 20924	3.4446	1.95295	1.35845	0.6922	59.29	-0.2485	-0.0229	0.2255	882.4621	0.108269	-412.046902	-412.039517	-412.038572	-412.079497	25.921
C         -0.11830        1.58810       -0.05310
C          0.07070        0.07170       -0.04450
N          0.76170       -0.41550       -1.22560
N          0.15970       -0.48520       -2.44160
N          0.99900       -0.92990       -3.28670
N          2.16700       -1.15360       -2.62910
C          2.08310       -0.83860       -1.28330
O          2.91030       -0.90960       -0.40150
H          0.84730        2.10080       -0.07840
H         -0.70220        1.90030       -0.92300
H         -0.65020        1.90080        0.85010
H          0.68820       -0.24540        0.80000
H         -0.89200       -0.44360        0.01890
H          2.96720       -1.51420       -3.12010
