16
gdb 15568	3.51403	1.6884	1.25678	1.8618	76.11	-0.2339	-0.0232	0.2107	966.1721	0.130043	-346.586137	-346.578259	-346.577315	-346.618375	29.54
O         -0.29770        1.50760       -0.31080
C          0.03860        0.15150       -0.04000
C         -1.18070       -0.77150        0.21490
C         -1.37960       -1.59780       -1.07990
C         -0.07420       -1.42180       -1.80780
C          0.72530       -0.50720       -1.23510
C          2.00600       -0.09760       -1.67650
C          3.10390        0.26870       -2.01170
H         -0.72210        1.53740       -1.17560
H          0.69530        0.20730        0.83270
H         -0.95980       -1.44330        1.04950
H         -2.05260       -0.17600        0.49450
H         -1.59330       -2.65220       -0.87020
H         -2.21980       -1.24070       -1.69170
H          0.17680       -1.97210       -2.70780
H          4.06840        0.59070       -2.31700
