19
gdb 1751	5.22653	1.45027	1.32895	1.4016	67.63	-0.2519	0.0746	0.3264	990.4803	0.170209	-310.910278	-310.901941	-310.900997	-310.94275	30.904
C         -0.07410        1.58040       -0.02290
C         -0.13890        0.05410       -0.12180
C          0.86510       -0.52510       -1.12760
C          0.81050       -2.03680       -1.23980
O          1.13970       -2.72510       -0.05660
C         -0.19390       -2.69340       -2.15770
C          1.28910       -2.71760       -2.48340
H          0.92340        1.91410        0.28330
H         -0.29640        2.04900       -0.98810
H         -0.79300        1.96500        0.70720
H          0.05490       -0.37750        0.86900
H         -1.15400       -0.25550       -0.40340
H          0.68260       -0.08830       -2.11760
H          1.88240       -0.23260       -0.83590
H          0.40060       -2.63280        0.55380
H         -0.63930       -3.62260       -1.82020
H         -0.84590       -2.06540       -2.75590
H          1.65060       -2.10670       -3.30350
H          1.81020       -3.65810       -2.34820
