11
gdb 17159	4.44356	2.01322	1.63487	3.7216	55.62	-0.2789	-0.0274	0.2515	735.715	0.070986	-397.27804	-397.272235	-397.271291	-397.308041	22.013
N         -0.02890       -1.09760        0.06710
C         -0.04220        0.05810        0.06730
C         -0.03300        1.49310        0.02960
O         -0.71390        2.26650        1.04900
C         -0.15860        3.30300        0.18990
C          1.15360        2.51950       -0.13350
O          1.00870        2.64030       -1.56860
C         -0.36560        2.50280       -1.13580
H         -0.33190        4.34770        0.43520
H          2.14490        2.53030        0.31570
H         -1.16880        2.49390       -1.87020
