17
gdb 10563	2.52923	1.91461	1.33945	1.9036	65.31	-0.2499	-0.029	0.2209	960.8236	0.140673	-400.964746	-400.956103	-400.955159	-400.998602	30.168
C         -0.44470        0.74040       -0.03460
O          0.10820        0.45690        1.23770
C          1.18710       -0.45900        1.20470
C          0.73690       -1.89000        0.92480
C          0.70650       -2.88620        2.05040
N         -0.53800       -2.35600        1.52290
C          0.96250       -2.43810       -0.44580
O          1.65000       -1.91700       -1.28870
H         -0.92520       -0.14030       -0.48310
H         -1.20060        1.51500        0.11370
H          0.32130        1.11000       -0.73060
H          1.92570       -0.17500        0.44300
H          1.65520       -0.38890        2.19050
H          0.88100       -3.94020        1.84820
H          1.08260       -2.53790        3.00920
H         -0.89060       -1.59500        2.10140
H          0.42780       -3.39640       -0.62830
