17
gdb 12398	3.12605	2.11528	1.33089	3.502	65.63	-0.2359	0.0273	0.2632	912.706	0.143707	-401.03124	-401.023576	-401.022632	-401.06331	27.899
C         -0.06110        1.45720        0.03870
N          0.01520        0.00940       -0.05190
C         -1.23890       -0.72870        0.02660
C         -1.04810       -2.17070       -0.42110
O          0.02230       -2.75770        0.28710
C          1.24420       -2.13160       -0.04810
C          1.23860       -0.60150       -0.04450
O          2.29800        0.00160       -0.06920
H          0.95220        1.85340       -0.00810
H         -0.65420        1.86290       -0.78940
H         -0.53050        1.76570        0.98190
H         -1.63040       -0.70620        1.05470
H         -1.98040       -0.23600       -0.61600
H         -1.94420       -2.75720       -0.20220
H         -0.86410       -2.21010       -1.50770
H          1.99070       -2.45540        0.67990
H          1.59110       -2.44910       -1.04570
