19
gdb 17432	2.70764	2.51126	1.85684	1.7116	74.06	-0.2376	0.0811	0.3187	831.8127	0.166017	-327.881976	-327.874565	-327.873621	-327.91307	29.234
C         -0.02620        1.61920        0.01890
C          0.10330        0.10160        0.03460
C          1.16710       -0.62290       -0.77050
C          2.40380       -0.75290        0.05970
C          2.15730       -0.11890        1.41340
C          0.72190       -0.66550        1.23760
C         -0.11080       -1.10110        2.40820
N          1.28040       -1.73870        0.22960
H          0.93300        2.11700        0.18650
H         -0.40970        1.96300       -0.94790
H         -0.72560        1.96320        0.78920
H         -0.86690       -0.36020       -0.18590
H          1.17150       -0.83080       -1.83540
H          3.35070       -1.05940       -0.37100
H          2.68220       -0.66990        2.19920
H          2.30990        0.95560        1.55660
H         -0.42220       -0.23400        3.00290
H         -1.01140       -1.62620        2.07410
H          0.45230       -1.77540        3.06140
