15
gdb 21237	3.38801	1.94133	1.25357	3.2501	64.62	-0.215	0.0021	0.2171	938.9944	0.119369	-395.976527	-395.968597	-395.967652	-396.009367	27.467
C          0.04620        1.43070       -0.01650
O          0.02570        0.00480        0.01360
C          0.59830       -0.60540       -1.03850
C          0.69450       -1.97220       -1.21750
C          0.24330       -3.12580       -0.39160
N          1.34390       -2.05190       -2.41070
N          1.62790       -0.84870       -2.92800
N          1.16810        0.04210       -2.08310
H          1.07300        1.80950       -0.04170
H         -0.48710        1.81400       -0.89230
H         -0.45180        1.75420        0.89860
H         -0.48120       -3.75550       -0.92110
H          1.07840       -3.76540       -0.08330
H         -0.23980       -2.74810        0.51190
H          1.61910       -2.87810       -2.91800
