16
gdb 18835	4.07564	2.29969	1.9329	1.9416	62.81	-0.2173	0.07	0.2873	738.3873	0.13137	-383.690926	-383.684764	-383.683819	-383.720906	24.906
C          0.00810        1.54590       -0.00090
C          0.03760        0.02800        0.02780
O          0.77160       -0.45950       -1.11660
C          1.54660       -1.55040       -0.69080
C          2.53040       -1.31330        0.44470
O          2.17640       -0.11270        1.13120
C          0.79320       -0.58910        1.20370
C          1.20620       -1.99220        0.70360
H          1.02220        1.93710        0.10280
H         -0.41360        1.89730       -0.94620
H         -0.61180        1.93170        0.81510
H         -0.98710       -0.37990       -0.00170
H          1.78380       -2.26050       -1.47400
H          3.55910       -1.65130        0.49570
H          0.35770       -0.45600        2.19470
H          0.90960       -2.96650        1.06610
