12
gdb 154	13.52261	3.29848	2.97514	2.9395	42.64	-0.2436	0.0677	0.3113	445.0397	0.103108	-248.364357	-248.358808	-248.357864	-248.392932	19.038
O         -0.02550        1.27900        0.46230
C          0.00040       -0.00860       -0.13620
C         -1.39460       -0.57120       -0.11190
C         -1.58900       -2.03510        0.03240
N         -1.94970       -1.12510        1.13050
H          0.84020        1.68170        0.34620
H          0.35590        0.04280       -1.17810
H          0.67650       -0.69090        0.40800
H         -2.11630        0.00010       -0.69170
H         -2.42760       -2.52360       -0.45510
H         -0.70360       -2.65850        0.13520
H         -1.23030       -1.13870        1.85020
