16
gdb 14327	4.31202	1.82542	1.54566	4.3348	63.75	-0.264	0.0157	0.2797	839.9841	0.132443	-383.781428	-383.774924	-383.773979	-383.812527	24.93
O          0.04670       -0.03210       -0.01820
C         -0.04060        1.15900        0.03110
C         -1.30560        2.00940        0.17060
C         -0.78770        3.41180        0.44510
C         -0.36300        3.75360        1.90790
C          1.10350        3.95870        1.42660
C          0.72170        3.35860        0.05680
O          1.05460        1.97040       -0.04880
H         -1.86380        1.93770       -0.76920
H         -1.93960        1.59430        0.95770
H         -1.36080        4.20100       -0.04150
H         -0.84900        4.62460        2.35090
H         -0.48390        2.90970        2.59250
H          1.38380        5.01200        1.34690
H          1.88810        3.42250        1.96330
H          1.07500        3.86220       -0.84570
