17
gdb 3183	4.86945	2.02737	1.81541	2.7411	64.07	-0.2374	0.0662	0.3037	766.0916	0.149329	-305.841708	-305.834593	-305.833649	-305.872742	26.893
C          0.06680        1.55710        0.10850
C         -0.00290        0.04620        0.01440
C          1.04550       -0.66060       -0.77460
N          1.04610       -0.73870        0.69750
C         -1.35750       -0.60610        0.09860
C         -2.55630        0.08170        0.63920
N         -2.45780       -0.21930       -0.80180
H          1.07940        1.91110       -0.10640
H         -0.60440        2.04620       -0.60710
H         -0.20830        1.90320        1.11070
H          0.80880       -1.59310       -1.27990
H          1.80450       -0.05930       -1.26890
H          1.75250       -0.11280        1.07720
H         -1.28170       -1.68080        0.24580
H         -3.31040       -0.48770        1.17510
H         -2.46280        1.11470        0.96170
H         -2.20820        0.62590       -1.31070
