16
gdb 9183	7.34504	0.88427	0.8009	1.434	68.38	-0.2699	0.0118	0.2818	1392.1509	0.127141	-383.74217	-383.73288	-383.731936	-383.777891	31.529
C         -0.07510        1.46410       -0.10530
C          0.04870       -0.04750        0.06970
C          0.79750       -0.43200        1.32840
O          1.26390        0.33110        2.13640
O          0.88310       -1.77710        1.44120
C          1.58240       -2.23960        2.61430
C          1.59820       -3.69220        2.60740
C          1.62970       -4.89200        2.63300
H          0.91010        1.93410       -0.15920
H         -0.62120        1.69810       -1.02310
H         -0.60560        1.91380        0.73770
H         -0.93440       -0.53130        0.10840
H          0.56630       -0.51120       -0.77830
H          2.59880       -1.83110        2.61430
H          1.08370       -1.85180        3.50920
H          1.65620       -5.95350        2.65330
