17
gdb 4130	3.24462	1.53269	1.22454	1.9277	68.61	-0.2297	-0.0006	0.2292	1020.2299	0.139953	-400.944721	-400.935966	-400.935021	-400.978794	31.886
C         -0.29750        1.42890        0.00960
C          0.10770       -0.01960        0.04940
N          0.31360       -0.69510        1.12290
O          0.11700        0.04580        2.29850
C          0.24270       -0.73100       -1.24340
C          1.31500       -1.80330       -1.45650
C         -0.11400       -2.22290       -1.34520
O         -0.59940       -2.91680       -0.25460
H          0.34400        1.97810       -0.68710
H         -1.32490        1.51700       -0.36310
H         -0.24210        1.88830        0.99440
H          0.37550       -0.58230        2.98070
H          0.00000       -0.11550       -2.10300
H          1.80860       -1.83080       -2.42240
H          1.95360       -2.00460       -0.60280
H         -0.62740       -2.52490       -2.25300
H         -0.30130       -2.43780        0.54010
