15
gdb 5680	5.09435	2.17728	1.5398	1.5445	74.22	-0.1989	-0.0004	0.1986	787.2227	0.122214	-325.569996	-325.56418	-325.563236	-325.599618	23.747
C         -0.04810        1.52380        0.01080
C          1.43410        1.86960       -0.00150
C          2.16140        0.74620       -0.01460
N          1.31510       -0.37240       -0.01280
C          1.41080       -1.74030       -0.02120
C          0.12130       -2.22850       -0.01160
C         -0.78100       -1.11790        0.00310
C         -0.01060        0.01920        0.00200
H         -0.55220        1.93350        0.89600
H         -0.56890        1.94320       -0.86010
H          1.82560        2.87570        0.00040
H          3.23330        0.61260       -0.02560
H          2.36500       -2.24150       -0.03310
H         -0.15240       -3.27290       -0.01480
H         -1.85910       -1.16770        0.01320
