16
gdb 21158	3.204	1.90874	1.22942	2.5689	68.13	-0.1866	0.0466	0.2332	963.9421	0.133141	-376.103608	-376.095503	-376.094559	-376.136168	29.335
C          0.06900        1.39140        0.18600
N         -0.00260        0.02760       -0.31590
C         -1.13180       -0.72730       -0.06430
C         -1.23130       -2.10220        0.10960
N         -0.09420       -2.96150        0.13060
C         -2.61840       -2.33410        0.26740
N         -3.33080       -1.21680        0.21040
N         -2.39560       -0.24370        0.00110
H          1.06470        1.79050       -0.01930
H         -0.64620        2.03070       -0.34440
H         -0.12870        1.47850        1.26570
H          0.81930       -0.53210       -0.12330
H         -0.11180       -3.58170        0.93350
H         -0.04950       -3.55160       -0.69500
H         -3.11960       -3.27840        0.43240
H         -2.70120        0.70750       -0.10040
