15
gdb 2665	6.61268	1.25117	1.06593	1.8765	64.35	-0.2511	-0.0171	0.234	1063.4638	0.124772	-341.867138	-341.859401	-341.858457	-341.899404	26.751
C          0.00970        1.37320       -0.04910
C          0.38960       -0.06640       -0.40420
N         -0.66170       -1.07070       -0.46930
C         -1.86230       -0.75230       -0.23580
N         -2.85990       -1.72330       -0.30130
C         -4.19050       -1.47920       -0.06540
O         -4.65610       -0.40210        0.22540
H          0.90820        1.99730       -0.04270
H         -0.68750        1.80270       -0.77630
H         -0.44890        1.44160        0.94300
H          0.90010       -0.08120       -1.37660
H          1.13460       -0.43620        0.31320
H         -2.25450        0.23080        0.02510
H         -2.55770       -2.65770       -0.53950
H         -4.79800       -2.39760       -0.17400
