16
gdb 411	5.32426	2.84956	2.38565	1.3206	56.77	-0.2616	0.0757	0.3373	610.3779	0.142009	-271.618137	-271.611049	-271.610104	-271.648484	25.913
C         -0.04940        1.54330        0.11090
C         -0.02120        0.02990        0.02440
C         -1.29650       -0.59490       -0.49030
O         -1.51580       -0.14730       -1.82340
C          1.27530       -0.65080       -0.34020
C          0.74320       -0.74590        1.07010
H          0.90800        1.93770        0.46500
H         -0.25960        1.97930       -0.86980
H         -0.82780        1.88420        0.80470
H         -1.21310       -1.69310       -0.45140
H         -2.13720       -0.30550        0.16190
H         -2.39760       -0.42230       -2.09020
H          1.23000       -1.53590       -0.96550
H          2.14430       -0.02660       -0.51830
H          1.24630       -0.18160        1.84810
H          0.34560       -1.69940        1.40320
