22
gdb 15082	2.37042	1.54817	1.01683	1.7548	78.09	-0.254	0.086	0.3401	1222.5654	0.199594	-350.191985	-350.182434	-350.18149	-350.226319	35.213
C         -0.21430        1.50200       -0.04530
C         -0.00610       -0.01410       -0.13830
C          0.88490       -0.47980       -1.30690
C          2.33440        0.01040       -1.14990
O          3.16410       -0.31380       -2.25200
C          0.84160       -1.99420       -1.43790
C         -0.30410       -2.67270       -2.14140
C          1.06610       -2.67930       -2.77130
H          0.71590        2.03680        0.16850
H         -0.61930        1.90300       -0.98130
H         -0.92120        1.74790        0.75330
H          0.41770       -0.38540        0.80530
H         -0.98190       -0.50330       -0.24060
H          0.49300       -0.04700       -2.23910
H          2.36210        1.10110       -1.07450
H          2.74840       -0.38970       -0.20720
H          3.12440       -1.26870       -2.36560
H          1.23180       -2.52080       -0.56790
H         -0.68680       -3.60160       -1.73380
H         -1.06210       -2.04140       -2.59420
H          1.22070       -2.05160       -3.64250
H          1.61580       -3.61460       -2.79180
