20
gdb 8414	3.34475	1.83908	1.54319	1.4775	74.56	-0.245	0.0748	0.3199	923.3104	0.17634	-348.976555	-348.968317	-348.967373	-349.008261	32.629
C         -0.20560        1.59700        0.02260
C          0.00070        0.08210        0.01880
C         -1.32580       -0.63740       -0.24520
C          1.13560       -0.49740       -0.89920
C          1.74420       -1.22170        0.30870
C          2.15340       -0.23640        1.35920
O          2.65480        1.04120        1.07010
C          0.70060       -0.55270        1.24180
H          0.73450        2.12400        0.18630
H         -0.63480        1.92840       -0.93090
H         -0.90470        1.89000        0.81510
H         -1.73890       -0.34520       -1.21730
H         -1.19860       -1.72530       -0.24280
H         -2.06740       -0.38600        0.52220
H          0.75300       -1.17080       -1.66920
H          1.79010        0.24260       -1.36930
H          2.11100       -2.24200        0.30730
H          2.61560       -0.69750        2.23410
H          3.53310        0.93250        0.68990
H          0.15960       -0.98040        2.08040
