16
gdb 16735	5.48958	1.42987	1.25316	3.6081	73.9	-0.2435	-0.0534	0.1901	960.3548	0.131672	-346.61975	-346.613011	-346.612067	-346.650706	25.956
O         -0.05440       -0.00530        0.10830
C          0.01990        1.20470        0.06070
C          1.27190        1.95120       -0.01080
C          1.35970        3.29490       -0.04090
C          2.76440        3.75990       -0.03760
C          3.56240        3.35740        1.19730
C          3.60460        2.48100       -0.01870
C          2.63930        1.29700       -0.07750
H         -0.89660        1.83740        0.06020
H          0.50760        3.96720       -0.03930
H          3.05090        4.65730       -0.57340
H          4.44690        3.94610        1.41610
H          3.00860        3.02730        2.07040
H          4.53250        2.42910       -0.57530
H          2.78960        0.58380        0.74040
H          2.74770        0.72520       -1.00680
