15
gdb 17143	4.3015	1.95202	1.59778	1.3452	72.17	-0.2437	0.0307	0.2744	810.2308	0.118925	-325.390954	-325.384553	-325.383609	-325.421257	25.594
C          0.01540       -1.19010        0.00050
C         -0.01320        0.01290        0.02250
C         -0.05020        1.44710        0.05290
C         -0.72910        2.41280        1.02740
N         -0.08620        3.40850        0.07330
C          1.13940        2.46900       -0.07240
C          1.07020        2.53420       -1.59900
C         -0.37760        2.45200       -1.11250
H          0.04060       -2.25170       -0.01860
H         -1.82300        2.44800        1.02880
H         -0.33670        2.46470        2.04780
H          1.99090        2.55810        0.60430
H          1.36920        3.48310       -2.05060
H          1.45690        1.67390       -2.14890
H         -1.31700        2.52100       -1.66360
