18
gdb 1817	3.97959	2.12421	1.96692	2.7471	63.41	-0.235	0.0595	0.2944	768.9943	0.158694	-326.955365	-326.947177	-326.946232	-326.987038	30.629
C         -0.12120        1.46840       -0.07670
C          0.03630       -0.05320        0.06070
C          0.80670       -0.41830        1.33670
O         -1.25530       -0.67380        0.07130
C          0.75810       -0.60980       -1.16240
C          0.54580       -2.00310       -1.61580
N          0.02180       -0.86820       -2.40550
H          0.85360        1.96390       -0.12410
H         -0.67670        1.71350       -0.98590
H         -0.66140        1.88140        0.78370
H          0.31210       -0.00190        2.22210
H          0.86010       -1.50420        1.44790
H          1.82660       -0.02090        1.30950
H         -1.76840       -0.27900        0.78290
H          1.73670       -0.15900       -1.31750
H          1.35880       -2.55160       -2.08330
H         -0.16640       -2.60750       -1.06350
H         -0.97140       -0.78170       -2.19600
