15
gdb 12323	3.19516	2.27184	1.38888	1.9648	64.24	-0.2285	-0.0271	0.2014	855.3716	0.122164	-396.034244	-396.027188	-396.026244	-396.065258	27.144
N          0.02590        1.32130       -0.03910
C         -0.06690       -0.03890       -0.03710
N         -1.18520       -0.66150       -0.02540
C         -1.13540       -2.11560       -0.05050
C          0.06950       -2.67940       -0.80230
N          1.27760       -2.02780       -0.30720
C          1.30760       -0.69880       -0.04320
O          2.32180       -0.06740        0.20680
H          0.92690        1.68950        0.22610
H         -0.80000        1.83850        0.21430
H         -1.13450       -2.49730        0.98200
H         -2.05250       -2.48920       -0.51840
H          0.15680       -3.75770       -0.64060
H         -0.04820       -2.51040       -1.88290
H          2.17760       -2.47300       -0.41300
