14
gdb 15446	3.32921	1.94829	1.32801	3.6369	69.73	-0.2388	-0.0521	0.1867	890.2489	0.106742	-345.402975	-345.39579	-345.394846	-345.434812	26.679
O         -0.03530       -0.00430        0.20180
C         -0.07330        1.19460        0.10110
C         -1.26190        2.05630       -0.07030
C         -0.91330        3.34710       -0.08870
C          0.56620        3.57460        0.07840
C          1.17140        2.14560        0.09710
C          2.09190        1.88320        1.18770
C          2.84000        1.67910        2.10560
H         -2.26020        1.64680       -0.15220
H         -1.60370        4.17690       -0.19860
H          0.97620        4.19160       -0.72860
H          0.77400        4.10810        1.01260
H          1.67940        1.95020       -0.85660
H          3.50440        1.48480        2.91070
