15
gdb 2770	3.95433	2.29339	1.65418	4.2177	57.65	-0.2414	-0.0156	0.2257	754.7821	0.124014	-345.645245	-345.637978	-345.637034	-345.676871	25.84
O          0.32670        1.10360       -0.61190
C          0.08640       -0.11770        0.04430
C         -0.07710       -0.13510        1.58840
C         -1.31670       -1.04830        1.39850
C         -1.37430       -0.63280       -0.11200
C         -2.37240        0.47220       -0.35500
O         -3.19830        0.45700       -1.23110
H          1.25030        1.34520       -0.49020
H          0.79040       -0.89460       -0.28490
H          0.75430       -0.51560        2.18630
H         -0.35270        0.85850        1.95260
H         -1.08570       -2.10960        1.50830
H         -2.19950       -0.82160        2.00040
H         -1.54280       -1.41880       -0.84940
H         -2.31920        1.31970        0.36470
