13
gdb 20424	6.386	1.60708	1.35367	3.0898	60.7	-0.2505	-0.0113	0.2392	860.3317	0.09738	-394.74949	-394.743188	-394.742244	-394.780593	22.57
C         -0.18490        1.24230       -0.37940
C          1.21220        1.16500        0.14260
N          0.32900       -0.00050        0.17660
C         -0.16670       -0.48630        1.35510
N         -1.41470       -0.58650        1.72760
C         -1.28040       -1.23070        2.92980
N         -0.06150       -1.51020        3.29880
O          0.70790       -1.00490        2.22710
H         -0.92160        1.77850        0.21090
H         -0.36670        1.22260       -1.44890
H          2.04990        1.08240       -0.54160
H          1.42890        1.65460        1.08760
H         -2.12160       -1.49710        3.55400
