20
gdb 15005	4.14662	1.38671	1.1214	0.5822	71.59	-0.2359	0.0864	0.3222	1101.7657	0.178167	-386.13904	-386.130869	-386.129925	-386.171879	30.37
C         -0.11670        1.38330        0.00020
O          0.08360       -0.01220        0.03180
C          0.70360       -0.55020       -1.12340
C          1.31460       -1.89870       -0.74410
C          1.86310       -2.60900       -1.99050
C          0.79410       -2.66120       -3.08270
O          0.29940       -1.36740       -3.39060
C         -0.30440       -0.74670       -2.27030
H          0.82840        1.92430       -0.16310
H         -0.82900        1.69560       -0.77720
H         -0.52230        1.67100        0.97350
H          1.50020        0.12710       -1.47460
H          2.09330       -1.75430        0.01130
H          0.52730       -2.50690       -0.27970
H          2.73600       -2.06870       -2.37680
H          2.19350       -3.62420       -1.74330
H          1.19700       -3.06210       -4.01720
H         -0.03690       -3.31420       -2.76290
H         -1.14900       -1.34780       -1.89190
H         -0.69960        0.20870       -2.62630
