19
gdb 8889	3.59643	1.28959	1.03601	4.4505	69.37	-0.246	0.0234	0.2694	1173.1138	0.16392	-402.227992	-402.218259	-402.217315	-402.263522	33.603
C         -0.03270        1.62120       -0.09540
C          0.00930        0.09120       -0.10140
N          0.72410       -0.45980       -1.25520
C          2.15820       -0.63790       -1.11810
C          0.02100       -0.74160       -2.38060
O         -1.18810       -0.54700       -2.46920
C          0.74480       -1.33740       -3.60020
O         -0.18390       -1.57500       -4.61400
H          0.97250        2.05520       -0.09530
H         -0.56910        1.98670       -0.97470
H         -0.55230        1.98090        0.79810
H          0.50200       -0.28530        0.80210
H         -1.00610       -0.30770       -0.12700
H          2.60500       -0.96900       -2.05380
H          2.64010        0.30480       -0.83290
H          2.38740       -1.38280       -0.34560
H          1.52650       -0.63830       -3.93930
H          1.25380       -2.26900       -3.30650
H         -1.02820       -1.27020       -4.23530
