18
gdb 18133	3.2292	1.84968	1.47107	0.7979	77.2	-0.2504	0.049	0.2994	919.0006	0.153407	-310.605302	-310.597524	-310.59658	-310.63698	30.315
C         -0.10540        1.49900       -0.19340
C          0.06150        0.00790        0.01140
C          1.32750       -0.77830       -0.19550
C          2.56070       -0.01040        0.29580
C          1.94270        0.02110        1.74480
C          1.82440        1.27970        2.46150
C          1.74650        2.31610        3.06780
C          0.68260       -0.68360        1.19610
H          0.74880        2.07370        0.16750
H         -0.24210        1.72440       -1.25720
H         -0.98810        1.86480        0.34190
H         -0.80240       -0.55840       -0.33570
H          1.36790       -1.63240       -0.86090
H          3.48220       -0.59420        0.26440
H          2.74680        0.96130       -0.16860
H          2.49720       -0.68470        2.37150
H          1.66730        3.23190        3.59930
H          0.14420       -1.44060        1.75460
