15
gdb 4474	3.58901	1.76936	1.19566	2.3981	65.96	-0.1688	0.0469	0.2157	965.0547	0.118007	-399.826876	-399.818425	-399.817481	-399.859562	30.328
C          0.16490        1.47160        0.06830
C         -0.03220        0.00610       -0.01480
C         -1.11980       -0.79360       -0.15730
O         -2.40280       -0.33960       -0.25800
C         -0.67460       -2.16300       -0.16130
C          0.67960       -2.09090       -0.02020
N          1.68980       -3.04340       -0.03140
O          1.09250       -0.81180        0.07260
H          0.82470        1.84800       -0.72380
H         -0.80570        1.96220       -0.03950
H          0.59590        1.78410        1.02840
H         -2.97590       -1.08440       -0.45810
H         -1.27560       -3.05400       -0.25540
H          1.37660       -3.95250        0.27960
H          2.50180       -2.74570        0.49490
