18
gdb 10659	2.90441	1.68873	1.34747	2.8942	70.35	-0.24	-0.0195	0.2205	995.0946	0.151006	-384.929686	-384.920727	-384.919783	-384.962959	32.109
C          0.15460        1.28820        0.23190
O         -0.22880       -0.02780       -0.15160
C          0.49200       -0.55940       -1.20470
C          1.88870       -1.13040       -0.92840
C          0.74100       -2.06390       -1.15510
C          0.15020       -2.87740       -0.02610
C          0.26980        0.02600       -2.55160
O         -0.45150        0.96180       -2.79310
H          1.21920        1.32940        0.50200
H         -0.04700        2.00870       -0.56580
H         -0.44450        1.53900        1.10980
H          2.65680       -1.02800       -1.68760
H          2.23250       -0.99840        0.09190
H          0.72140       -2.55300       -2.12620
H          0.12060       -2.29720        0.89790
H         -0.87350       -3.18600       -0.25970
H          0.74590       -3.78010        0.14470
H          0.84780       -0.48700       -3.35710
