14
gdb 20841	4.98475	1.43754	1.18853	3.0087	59.65	-0.2439	0.0034	0.2473	984.6211	0.107881	-415.910716	-415.903307	-415.902362	-415.942906	26.303
C          0.53900        1.00380       -0.57040
C         -0.34000        0.30680        0.48170
C          0.44820       -0.30760        1.58070
N          0.39150       -0.02330        2.83450
N          1.32230       -0.87410        3.39790
C          1.94630       -1.67250        2.48290
O          2.79070       -2.51240        2.59340
O          1.35140       -1.28260        1.27460
H          1.24460        0.29970       -1.01850
H         -0.08450        1.41790       -1.36690
H          1.11060        1.82200       -0.12290
H         -1.03610        1.01210        0.94280
H         -0.93750       -0.47710        0.00020
H          1.49140       -0.86680        4.38790
