16
gdb 14419	2.99593	2.3538	1.74533	0.9207	63.75	-0.226	0.0708	0.2968	798.4995	0.130032	-383.664646	-383.657634	-383.65669	-383.695511	27.285
C         -0.04340        1.59070       -0.09390
C          0.01450        0.10330        0.00180
C          0.07450       -1.02490       -0.96700
O          1.20640       -1.67600       -0.37930
C          0.88870       -0.92880        0.82420
C         -0.43070       -1.58650        1.32740
O         -0.96700       -0.95560        2.47300
C         -1.05580       -0.99290        0.07710
H          0.92500        2.01300       -0.38470
H         -0.78080        1.89850       -0.84310
H         -0.33780        2.03500        0.86280
H         -0.07560       -1.08730       -2.03720
H          1.74130       -0.74000        1.47610
H         -0.40800       -2.68040        1.43210
H         -0.46920       -1.26480        3.23720
H         -2.10480       -0.93400       -0.18410
