15
gdb 18746	3.99417	1.85619	1.42543	4.624	61.67	-0.2291	0.0023	0.2314	866.8024	0.11902	-399.781983	-399.775056	-399.774112	-399.813214	25.592
C         -0.04750        1.55330        0.08050
N          0.09470        0.11520        0.13780
C         -1.12550       -0.70810        0.31420
C         -0.41810       -1.51950        1.41220
O          0.48270       -2.55160        0.90940
C          1.57280       -1.69580        0.91520
O          2.69630       -1.95460        0.64020
C          0.72420       -0.48520        1.34100
H          0.94120        2.02090        0.04730
H         -0.57660        1.82830       -0.83740
H         -0.60510        1.97810        0.93670
H         -1.97010       -0.13960        0.73230
H         -1.45420       -1.25140       -0.57660
H         -0.95230       -1.85290        2.29820
H          1.06810        0.18160        2.13260
