15
gdb 8169	3.01869	2.64826	1.80725	3.3535	60.69	-0.2512	0.0132	0.2645	744.3248	0.120644	-399.810811	-399.804439	-399.803495	-399.840879	25.897
O          0.05510        1.41200        0.03540
C         -0.00990        0.04270        0.07590
C          0.30930       -0.83320        1.33170
C         -0.35530       -1.91520        0.43820
C         -1.33440       -0.80960       -0.05490
N          0.64550       -2.00150       -0.66040
C          0.82210       -0.67500       -0.99590
O          1.42660       -0.15180       -1.90360
H          0.59570        1.62980       -0.74090
H          1.35450       -0.98340        1.60910
H         -0.30030       -0.55680        2.19400
H         -0.67510       -2.88120        0.81800
H         -2.08670       -0.52270        0.68280
H         -1.77910       -0.92910       -1.04640
H          0.60930       -2.71800       -1.37050
