14
gdb 5766	6.15645	1.61157	1.36027	1.5527	64.38	-0.2171	0.0148	0.2319	876.2161	0.109217	-378.719135	-378.712723	-378.711779	-378.750291	23.619
C         -0.14990        1.34580       -0.23730
C          1.25750        0.90340       -0.03230
N          0.16450       -0.04820        0.11290
C         -0.12200       -0.50640        1.38330
N          0.68230       -0.68580        2.38650
C         -0.12880       -1.25260        3.36660
C         -1.38740       -1.37480        2.89410
O         -1.39950       -0.89710        1.60450
H         -0.60000        1.96530        0.53350
H         -0.54640        1.48480       -1.23760
H          1.90150        0.72770       -0.88790
H          1.76030        1.21370        0.87830
H          0.26010       -1.52440        4.33510
H         -2.32370       -1.73880        3.27880
