20
gdb 13557	2.61588	1.63435	1.12977	2.6093	75.79	-0.2414	-0.017	0.2244	1110.5698	0.174759	-349.007595	-348.99818	-348.997236	-349.042274	33.589
C         -0.22900        1.46200        0.10310
C          0.03340       -0.04130       -0.09830
C          0.83330       -0.25250       -1.37110
O          0.46760       -0.87970       -2.33120
C          0.80920       -0.62600        1.07500
C          0.09210       -1.12350        2.30970
C          0.81380       -2.10170        1.41410
C          0.05430       -3.13790        0.61250
H          0.71180        2.02260        0.14970
H         -0.82870        1.87540       -0.71340
H         -0.76220        1.62880        1.04330
H         -0.91710       -0.56630       -0.22840
H          1.83900        0.23520       -1.35470
H          1.74900       -0.10860        1.25920
H          0.50520       -0.88780        3.28450
H         -0.99380       -1.13620        2.28100
H          1.76340       -2.46490        1.79970
H         -0.92910       -2.77660        0.29960
H          0.60050       -3.42690       -0.29150
H         -0.10610       -4.04080        1.21150
