15
gdb 4808	5.57656	1.29899	1.14076	2.4654	64.3	-0.2008	0.0087	0.2095	1035.8518	0.121055	-396.003249	-395.995483	-395.994539	-396.036023	28.258
N          0.18550        1.41380       -0.23680
C         -0.10840        0.00930        0.08290
C          0.68020       -0.56280        1.21880
N          0.27970       -0.81040        2.43070
C          1.41190       -1.25890        3.09620
N          1.31530       -1.68370        4.41570
C          2.46350       -1.25140        2.23400
O          1.99180       -0.80350        1.01560
H          0.03110        1.98340        0.59100
H          1.17270        1.50660       -0.46010
H         -1.16650       -0.08190        0.33910
H          0.06820       -0.58670       -0.81890
H          0.52690       -1.25950        4.88550
H          2.16370       -1.57240        4.95260
H          3.50410       -1.51530        2.28580
