17
gdb 18433	2.99985	2.06463	1.60043	1.4644	74.06	-0.2273	0.0296	0.2569	866.2706	0.141498	-326.64362	-326.635971	-326.635027	-326.67509	29.582
C         -0.56630        1.43520        0.00780
C         -0.03130        0.01570       -0.01450
C          1.04700       -0.46430       -1.02940
C          1.79790       -1.00330        0.18570
C          2.17160        0.08760        1.11900
C          2.57060        1.40070        0.69310
C          2.99280        2.48130        0.37240
N          0.78380       -0.46610        1.17230
H          0.22840        2.18110       -0.00260
H         -1.20840        1.60180       -0.86440
H         -1.17380        1.58960        0.90590
H         -0.87860       -0.67640       -0.05030
H          0.69060       -1.23130       -1.71850
H          1.57850        0.30700       -1.59360
H          2.22150       -1.99830        0.28330
H          2.70320       -0.24420        2.00870
H          3.34490        3.44230        0.08880
