19
gdb 6772	7.40822	0.71263	0.66089	2.4258	69.23	-0.2637	0.0598	0.3235	1694.0018	0.164357	-402.255561	-402.245782	-402.244838	-402.291434	33.762
C          0.01230        1.55440       -0.03300
C          0.02960        0.02360       -0.02840
C          0.71000       -0.56690       -1.26840
C          0.72020       -2.08660       -1.25070
O          1.37590       -2.53360       -2.44900
C          1.46460       -3.87830       -2.58870
N          2.05390       -4.18300       -3.78580
O          1.05430       -4.68500       -1.78750
H          1.02900        1.96150       -0.06330
H         -0.52420        1.94130       -0.90630
H         -0.47840        1.94950        0.86160
H          0.54240       -0.33450        0.87390
H         -0.99890       -0.35440        0.03740
H          0.19760       -0.22380       -2.17580
H          1.74290       -0.20320       -1.33720
H          1.25610       -2.47790       -0.37910
H         -0.29450       -2.49790       -1.22100
H          2.56310       -3.46280       -4.26920
H          2.36710       -5.13240       -3.89290
