17
gdb 17068	3.85223	1.45265	1.25884	3.2012	64.9	-0.2367	0.0676	0.3043	990.0933	0.142632	-400.909282	-400.901601	-400.900657	-400.941406	28.968
O          0.07880        1.43070       -0.11740
C          0.05430        0.03350        0.16450
C         -1.35540       -0.52550        0.09000
C         -1.99520       -0.84530       -1.29720
N         -1.02920       -2.00690       -1.40720
C         -1.57840       -2.06610        0.00990
C         -2.99320       -1.79850       -0.55700
O         -3.95900       -1.31580        0.33530
H         -0.10730        1.53720       -1.05540
H          0.72510       -0.52600       -0.49640
H          0.42950       -0.06380        1.18960
H         -2.02650       -0.00860        0.77590
H         -2.18470       -0.17480       -2.13900
H         -1.45290       -2.75450       -1.96880
H         -1.26650       -2.83730        0.71590
H         -3.38290       -2.60930       -1.19090
H         -4.72860       -1.03460       -0.16970
