18
gdb 17496	2.9901	2.40301	1.64072	1.9621	71.02	-0.2209	0.0718	0.2927	847.4199	0.152115	-347.738775	-347.731115	-347.730171	-347.770039	30.118
C         -0.00700        1.56400        0.14780
C          0.03170        0.06690        0.04260
C         -0.89230       -0.86720        0.77830
C          0.59490       -0.96170        1.01780
C          1.31140       -1.66450       -0.17320
O          0.33370       -2.06340       -1.15030
C          0.77820       -0.69480       -1.12560
C          1.29740       -0.09230       -2.38910
H          0.97990        2.01060       -0.02210
H         -0.69870        2.00280       -0.58180
H         -0.34020        1.87340        1.14360
H         -1.44990       -0.40250        1.58630
H         -1.40940       -1.66390        0.25880
H          1.05660       -0.79010        1.98160
H          2.24370       -2.21700       -0.14740
H          0.47470        0.16790       -3.06530
H          1.86420        0.82140       -2.18440
H          1.95070       -0.80150       -2.90410
