14
gdb 8730	3.50241	1.42295	1.19601	0.8835	64.5	-0.2535	-0.1027	0.1508	1005.5563	0.103008	-382.521074	-382.512243	-382.511299	-382.55504	30.308
C          0.17590        1.24450       -0.37970
C         -0.13530       -0.20730        0.08000
C          0.61450       -0.57240        1.27270
C          1.24640       -0.85970        2.25260
C         -1.64460       -0.33370        0.28910
O         -2.21640       -0.27870        1.34840
C         -2.49380       -0.52520       -0.97910
O         -2.03200       -0.64410       -2.08310
H          1.24660        1.34280       -0.56940
H         -0.36430        1.47780       -1.30020
H         -0.10610        1.95850        0.39800
H          0.12560       -0.87430       -0.75070
H          1.80070       -1.12240        3.11950
H         -3.58140       -0.55630       -0.75990
