15
gdb 1870	5.03875	2.28628	1.86658	4.045	57.	-0.2446	0.0632	0.3078	707.6316	0.127728	-341.892484	-341.88592	-341.884976	-341.922752	24.681
C          0.12140        1.52670        0.05390
C         -0.06290        0.00880       -0.04430
C          0.71610       -0.62190       -1.22870
N          1.97690       -0.97240       -0.59530
C          1.81040       -1.16840        0.77110
O          2.61890       -1.63440        1.54150
N          0.52930       -0.71950        1.07450
H          1.18420        1.78740        0.06490
H         -0.35220        2.02940       -0.79600
H         -0.33730        1.91550        0.96910
H         -1.12950       -0.22470       -0.12700
H          0.18400       -1.50140       -1.61810
H          0.85360        0.09030       -2.04790
H          2.65000       -1.55980       -1.06050
H          0.37090       -0.41850        2.02370
