22
gdb 11074	2.12153	2.04794	1.79126	0.2303	82.84	-0.2318	0.0873	0.3192	977.3663	0.199373	-313.059015	-313.050025	-313.049081	-313.091589	34.547
C          0.00370        1.56280        0.03340
C          0.12060        0.05240        0.07110
C          1.36550       -0.75440       -0.22060
C          1.41950       -1.81660       -1.28290
C          2.60500       -0.04170        0.34160
C          1.95940       -0.05550        1.76230
C          0.72630       -0.76870        1.18670
C         -0.02990       -1.84900        1.90840
H          0.88630        2.06350        0.43950
H         -0.13010        1.91870       -0.99450
H         -0.86120        1.90230        0.61460
H         -0.76280       -0.44110       -0.33500
H          1.64100       -1.38580       -2.26780
H          2.19680       -2.56010       -1.06900
H          0.46490       -2.34720       -1.36750
H          3.50000       -0.66800        0.29180
H          2.85050        0.93500       -0.08950
H          2.51520       -0.68890        2.45910
H          1.78860        0.91230        2.24630
H         -0.62910       -1.43640        2.73020
H         -0.71750       -2.37380        1.23640
H          0.64840       -2.59450        2.34070
