14
gdb 3964	5.1426	1.57018	1.2029	4.0801	72.24	-0.1707	0.0003	0.1711	930.9477	0.109378	-378.713196	-378.706283	-378.705338	-378.744036	26.577
O         -0.10030        1.35990        0.13470
N          0.05960       -0.04920        0.08690
C         -1.09070       -0.63120       -0.05140
C         -2.39050        0.02310       -0.14860
C         -3.51680       -0.70610       -0.29110
N         -3.48840       -2.07940       -0.35010
C         -2.28450       -2.74970       -0.26300
C         -1.12270       -2.08280       -0.11980
H          0.80970        1.65360        0.23660
H         -2.44260        1.10040       -0.10520
H         -4.50010       -0.25750       -0.36670
H         -4.34340       -2.59510       -0.45660
H         -2.34390       -3.82920       -0.31730
H         -0.18770       -2.62420       -0.05300
