15
gdb 1405	6.14001	1.3783	1.21574	2.2671	63.74	-0.252	-0.0277	0.2243	952.1718	0.121788	-308.497008	-308.488744	-308.4878	-308.530026	28.608
C          0.03910        1.55600        0.01150
C          0.03840        0.01910        0.00490
C         -1.40140       -0.56120        0.06740
C         -2.12100       -0.17190        1.27250
C         -2.69520        0.15440        2.27680
C          0.70820       -0.47740       -1.26210
O          1.71940       -1.12690       -1.30610
H          1.06030        1.94670        0.03260
H         -0.45920        1.95470       -0.88000
H         -0.49430        1.92820        0.88960
H          0.61540       -0.36250        0.85210
H         -1.96280       -0.23150       -0.81770
H         -1.35290       -1.65580        0.01150
H         -3.21500        0.43440        3.15950
H          0.17750       -0.17640       -2.19870
