16
gdb 4502	3.47361	1.82728	1.21756	1.4447	69.26	-0.1888	0.0189	0.2077	985.392	0.130256	-379.972291	-379.963749	-379.962805	-380.005471	30.018
C          0.03480        1.42080        0.07850
C          0.00270       -0.05940       -0.05020
N         -0.13400       -0.76550       -1.13100
C         -0.10020       -2.08410       -0.69660
N         -0.27950       -3.12450       -1.61140
C          0.05530       -2.11670        0.65420
C          0.14510       -3.18300        1.68050
O          0.12910       -0.79620        1.07260
H          0.97510        1.75870        0.52680
H         -0.06750        1.86550       -0.91170
H         -0.78010        1.77980        0.71620
H         -0.11830       -2.79640       -2.55490
H          0.29620       -3.93420       -1.42300
H          1.12860       -3.22070        2.16600
H         -0.60410       -3.04980        2.47000
H         -0.03770       -4.15570        1.21540
