16
gdb 7738	3.63687	1.813	1.25019	5.0522	72.88	-0.2059	-0.0036	0.2023	940.454	0.13304	-379.951338	-379.944122	-379.943178	-379.982558	28.034
N          0.04940        1.38280        0.13220
C         -0.01970        0.00710        0.05490
C         -1.16210       -0.70340        0.15040
C         -1.19030       -2.15370        0.04770
N         -2.28360       -2.80210       -0.03660
O          0.01910       -2.81160       -0.01420
C          1.15460       -2.12090        0.49930
C          1.28980       -0.72250       -0.09470
H          0.85420        1.81820       -0.29150
H         -0.80920        1.88740       -0.03240
H         -2.13030       -0.22570        0.24380
H         -2.08200       -3.80150       -0.10020
H          1.07910       -2.04950        1.59310
H          2.01760       -2.74460        0.25380
H          1.56810       -0.78080       -1.15550
H          2.09040       -0.18170        0.42370
