19
gdb 4157	2.67711	1.63885	1.07757	0.7493	75.64	-0.2408	0.0085	0.2493	1123.4515	0.16428	-365.018586	-365.009783	-365.008839	-365.052241	32.218
C          0.12430        1.69570       -0.16200
C          0.08040        0.17560        0.02050
C          0.62230       -0.59410       -1.18340
C          0.55980       -2.16020       -1.15560
C         -0.10490       -2.16510       -2.56780
C         -0.22030       -0.65960       -2.44910
N         -0.84810        0.25500       -3.06020
O         -1.56490       -0.26960       -4.15550
H          1.15290        2.04530       -0.30650
H         -0.45690        1.99580       -1.03810
H         -0.28190        2.20920        0.71510
H          0.66260       -0.11350        0.90550
H         -0.95180       -0.14520        0.21040
H          1.63840       -0.24670       -1.41330
H          1.51730       -2.67670       -1.07000
H         -0.10990       -2.53040       -0.37530
H          0.56120       -2.48010       -3.37750
H         -1.04930       -2.70380       -2.67820
H         -1.99050        0.51690       -4.51280
