16
gdb 261	8.36053	1.7817	1.52355	2.5426	57.31	-0.2415	-0.0071	0.2345	817.4605	0.140374	-271.666055	-271.658117	-271.657173	-271.699054	26.57
C         -0.10230        1.55950        0.05950
C          0.05360        0.04020       -0.03770
C          0.68140       -0.57120        1.21450
C          0.85060       -2.08430        1.14940
C          1.47090       -2.74390        2.37030
O          0.51140       -2.72700        0.18210
H          0.86610        2.05310        0.20040
H         -0.55350        1.96890       -0.84950
H         -0.74130        1.84310        0.90360
H         -0.92010       -0.42970       -0.21260
H          0.66640       -0.22240       -0.90670
H          1.66860       -0.12920        1.41520
H          0.08460       -0.33620        2.10820
H          2.46810       -2.33210        2.56250
H          0.86780       -2.54120        3.26260
H          1.54300       -3.82080        2.21360
