20
gdb 6994	2.60852	1.88623	1.47292	2.7778	75.	-0.2321	-0.0135	0.2186	975.7708	0.174603	-349.027741	-349.018577	-349.017633	-349.061064	34.053
C         -0.62330        1.30740       -0.04540
C          0.12570       -0.01630       -0.10880
C          1.51340       -0.04240       -0.82260
C          2.02930       -0.90230        0.33800
O          2.98860       -1.60240        0.49630
C          0.77820       -0.62140        1.19860
C          1.09530        0.40360        2.29660
C          0.10700       -1.86310        1.78180
H          0.00160        2.11210        0.35460
H         -0.95100        1.61220       -1.04510
H         -1.51620        1.23300        0.58480
H         -0.52520       -0.77690       -0.55310
H          1.58150       -0.48070       -1.82130
H          2.00280        0.93870       -0.84320
H          1.62680        1.27890        1.91050
H          0.17620        0.75410        2.77850
H          1.72780       -0.05480        3.06290
H          0.75780       -2.34130        2.52060
H         -0.83480       -1.60110        2.27760
H         -0.11380       -2.60170        1.00470
