15
gdb 15039	2.80106	1.78382	1.15842	2.6323	63.21	-0.2562	-0.0533	0.2029	990.1929	0.115832	-399.771225	-399.763082	-399.762138	-399.80448	28.102
O          0.12810        0.07600       -0.02740
C          0.17610        1.26500        0.11960
C          1.47790        2.07990        0.13840
C          1.42360        3.03960        1.32700
O          0.58850        3.89760        1.44140
N          2.65050        1.24510        0.21130
C          3.03050        0.52810       -1.00020
C          3.83350        1.68900       -0.53190
H         -0.72870        1.89630        0.24020
H          1.41650        2.71300       -0.77130
H          2.20770        2.85200        2.09010
H          3.38110       -0.48730       -0.84800
H          2.41900        0.66780       -1.88870
H          3.76090        2.61360       -1.10260
H          4.78290        1.53790       -0.02800
