14
gdb 23917	3.35902	1.60869	1.42809	2.956	50.86	-0.2694	0.0601	0.3295	887.4216	0.103556	-510.207599	-510.199893	-510.198949	-510.240359	27.615
C         -0.05360        1.54910       -0.23310
C         -0.02740        0.06330        0.03460
N          1.24950       -0.64820       -0.12770
C          0.63040       -0.59890        1.19540
C          1.39040        0.11630        2.28380
F          2.11510        1.14780        1.84370
F          0.54070        0.57990        3.21780
F          2.23030       -0.73130        2.90200
H          0.87110        2.02620        0.08830
H         -0.18260        1.73060       -1.30500
H         -0.89270        2.01760        0.29160
H         -0.91960       -0.46230       -0.30630
H          1.12380       -1.56470       -0.54690
H          0.15460       -1.49290        1.59300
