13
gdb 11698	4.05171	1.70549	1.37221	3.4319	60.91	-0.2577	-0.0478	0.2099	861.0392	0.094411	-398.596024	-398.588956	-398.588012	-398.627588	25.663
O          0.03150       -0.02040       -0.04260
C          0.04230        1.18740       -0.09050
C          1.26330        1.98590        0.01070
C          1.38180        3.43910        0.38040
C          1.79970        3.02370       -1.00790
C          3.07500        2.16290       -0.98050
O          4.06740        2.11230       -1.64460
N          2.60210        1.38650        0.08190
H         -0.88750        1.78450       -0.21030
H          0.45930        4.01230        0.42100
H          2.12800        3.69770        1.12430
H          1.31770        3.39470       -1.90130
H          2.77150        0.40080        0.22100
