13
gdb 10015	4.25495	1.22955	0.9643	2.1855	59.59	-0.2622	-0.0996	0.1626	1115.8027	0.091693	-435.755724	-435.747021	-435.746077	-435.790337	28.097
C         -0.05200        1.52570        0.17770
N          0.11410        0.08070        0.15690
C          0.59660       -0.52920       -0.83240
O          0.74540       -1.90220       -0.83880
C         -0.01310       -2.66920        0.01560
O          0.17990       -3.83840        0.11550
C          1.12520        0.01470       -2.13750
O          1.18160        1.19090       -2.38680
H          0.92060        2.02960        0.19180
H         -0.59130        1.90000       -0.69760
H         -0.59830        1.79390        1.08430
H         -0.77690       -2.07920        0.53800
H          1.46130       -0.76810       -2.84620
