14
gdb 1952	8.46064	1.57516	1.48102	4.4437	58.19	-0.2781	0.0038	0.2819	823.6716	0.113284	-324.573632	-324.566693	-324.565749	-324.604927	24.444
C         -0.48490        1.36880        0.11490
C          0.22190        0.03650        0.00770
C          0.93910       -0.32050       -1.31470
C          2.20440       -0.44290       -0.42790
O          1.49130        0.02360        0.72840
C          2.73010       -1.80390       -0.26000
N          3.14260       -2.87710       -0.14270
H          0.14700        2.17800       -0.26350
H         -1.41630        1.35120       -0.46150
H         -0.73400        1.58450        1.15840
H         -0.42110       -0.77260        0.37680
H          0.61780       -1.23120       -1.81830
H          0.99510        0.50040       -2.03120
H          3.03700        0.22090       -0.68680
