14
gdb 17166	4.45095	1.91675	1.59944	4.2933	62.72	-0.2481	-0.0388	0.2094	791.1324	0.106178	-382.444836	-382.43852	-382.437576	-382.475446	24.002
O          0.04220       -0.03730        0.04090
C          0.08810        1.16420       -0.00200
C          1.33970        1.96160       -0.00340
O          2.64180        1.33240        0.04700
C          2.92800        2.76150        0.00220
C          1.78020        3.10800       -0.99640
C          1.22860        4.22480       -0.08650
C          1.73900        3.17650        0.92350
H         -0.83190        1.79120       -0.04250
H          3.96740        3.08570        0.01290
H          1.81040        3.02700       -2.08230
H          1.76800        5.17530       -0.10880
H          0.15090        4.40150       -0.11590
H          1.72250        3.17300        2.01270
