11
gdb 878	7.15097	2.2289	1.71504	1.1577	48.35	-0.2191	0.0241	0.2432	666.9129	0.080017	-376.602183	-376.596199	-376.595255	-376.631802	22.048
N         -0.05660        1.37980        0.07110
C         -0.10700       -0.00150       -0.00780
C         -1.10900       -0.89700       -0.13390
N         -0.60480       -2.19870       -0.16570
C          0.67130       -2.01660       -0.05710
O          1.63190       -2.93990       -0.03300
O          1.09060       -0.75440        0.04390
H          0.45560        1.80650       -0.69380
H          0.32950        1.71730        0.94670
H         -2.16510       -0.69210       -0.20440
H          1.18940       -3.79500       -0.11360
