17
gdb 6675	7.10173	0.69972	0.66025	4.6108	66.4	-0.2472	-0.0205	0.2267	1611.303	0.139618	-401.04784	-401.038091	-401.037147	-401.084536	32.187
N         -0.03500        1.34730        0.16410
C          0.05410        0.03340       -0.19240
O          1.08440       -0.46070       -0.60720
C         -1.24580       -0.76100       -0.05310
C         -0.98170       -2.25190        0.16680
C         -2.26560       -3.09520        0.12300
C         -1.97040       -4.57250        0.25410
O         -2.46730       -5.30790        1.06730
H          0.77340        1.93360        0.03570
H         -0.88940        1.76290        0.48960
H         -1.86450       -0.34820        0.75280
H         -1.81460       -0.61660       -0.98230
H         -0.27320       -2.59000       -0.59590
H         -0.48070       -2.39380        1.13140
H         -2.97330       -2.81210        0.90830
H         -2.76120       -2.94630       -0.84840
H         -1.22470       -4.95430       -0.48310
