15
gdb 3567	5.27493	2.92865	2.74105	1.8403	59.06	-0.2439	0.0678	0.3117	574.4829	0.126962	-308.450204	-308.444961	-308.444017	-308.478871	21.405
C         -0.00140        1.45540       -0.08260
C          1.32990        0.77000        0.04640
C          0.01760       -0.03820        0.05060
C          0.44390       -0.69050       -1.28320
O          0.02970       -0.02230       -2.50280
C          1.30880        0.65880       -2.61180
C          1.77670        0.07660       -1.26310
H         -0.32160        1.98780        0.80720
H         -0.32550        1.90740       -1.01340
H          1.99490        0.98350        0.87430
H         -0.47400       -0.55480        0.86620
H          0.35970       -1.77800       -1.34570
H          1.87420        0.29530       -3.47900
H          1.19780        1.74720       -2.68320
H          2.73920       -0.43020       -1.22070
