18
gdb 8534	3.98035	1.88584	1.54307	1.2742	72.08	-0.2534	0.0789	0.3323	877.8485	0.15371	-347.732251	-347.72512	-347.724176	-347.763026	28.672
C         -0.16740        1.58560       -0.01680
C         -0.02790        0.07110       -0.01080
C          1.19910       -0.58940       -0.68360
C          2.13700       -0.31450        0.54070
C          2.59610       -1.78510        0.64440
C          1.10470       -1.84870        0.26360
O          0.27870       -2.94800        0.12330
C          0.72320       -0.62570        1.15000
H          0.77350        2.08330        0.24000
H         -0.47660        1.94780       -1.00380
H         -0.92480        1.91330        0.70430
H         -0.97910       -0.41020       -0.26520
H          1.50240       -0.58940       -1.73340
H          2.72650        0.58290        0.70810
H          3.31860       -2.12720       -0.10520
H          2.86590       -2.14930        1.64100
H          0.60140       -3.47980       -0.61230
H          0.48110       -0.66450        2.21390
