18
gdb 10398	2.62698	1.89421	1.38307	2.6027	63.44	-0.2509	0.0607	0.3117	953.1207	0.152341	-422.03225	-422.023582	-422.022638	-422.065611	30.996
C         -1.47090       -0.13430       -0.12320
O         -0.07120        0.09340       -0.14100
C          0.66090       -0.66510       -1.08660
C          0.39650       -0.16870       -2.50470
O          0.65710        1.21640       -2.60540
C          2.15370       -0.74450       -0.72120
O          2.13590       -2.18440       -0.85150
C          0.69720       -2.20390       -0.92420
H         -1.96820        0.21360       -1.03840
H         -1.70760       -1.19750        0.01960
H         -1.86750        0.42870        0.72450
H          1.06490       -0.68520       -3.20130
H         -0.63650       -0.41180       -2.80580
H          0.30440        1.61250       -1.79870
H          2.85800       -0.26870       -1.40990
H          2.35350       -0.42320        0.30810
H          0.24050       -2.55640        0.01050
H          0.33190       -2.80930       -1.76220
