19
gdb 14234	3.89524	1.82475	1.77014	0.901	75.32	-0.2004	0.0943	0.2946	867.5688	0.165662	-327.859026	-327.851686	-327.850741	-327.89001	29.241
C          0.04470        1.51850       -0.07050
N          0.04000        0.07160        0.09170
C         -0.89710       -0.53920        1.02650
C          0.05710       -1.62790        1.39540
C          1.12280       -0.58820        0.87790
C          1.11490        0.03970        2.30540
C         -0.27370       -0.58520        2.45470
C         -1.09340       -0.73300        3.70070
H          0.92390        1.81100       -0.65480
H         -0.84460        1.81140       -0.63910
H          0.04610        2.09270        0.86930
H         -1.96760       -0.57780        0.85840
H         -0.01460       -2.70530        1.35920
H          2.05420       -0.79380        0.35160
H          1.83890       -0.47090        2.94750
H          1.24270        1.12340        2.40600
H         -1.40580        0.24380        4.08870
H         -2.00120       -1.31700        3.51070
H         -0.53510       -1.24240        4.49510
