12
gdb 4320	3.94735	2.04144	1.34556	7.0037	60.37	-0.2482	-0.0444	0.2037	826.7272	0.084898	-414.729823	-414.722901	-414.721956	-414.76131	24.965
N         -0.01320        1.34500        0.00800
C          0.01140       -0.00370        0.00080
N         -1.14570       -0.62890        0.00400
C         -1.20210       -1.98360       -0.00280
O         -2.17220       -2.67990       -0.00100
O          0.06480       -2.70530       -0.01380
C          1.20720       -2.03550       -0.01670
C          1.27610       -0.69020       -0.00990
H          0.82760        1.89260        0.00630
H         -0.90810        1.80560        0.01560
H          2.07600       -2.68740       -0.02500
H          2.22510       -0.17270       -0.01260
