23
gdb 13895	2.67194	1.62014	1.21963	1.3329	82.01	-0.2103	0.0748	0.2851	1128.578	0.20977	-330.304309	-330.294194	-330.29325	-330.338701	37.155
C         -1.43240        0.36400        0.39920
C          0.04340        0.21980       -0.00490
C          0.65720        1.58880       -0.33920
C          0.82010       -0.45210        1.11770
C          0.88880       -1.93550        1.31650
C          0.21670       -2.93560        0.39780
N          2.08520       -1.17380        0.94460
C          2.68690       -1.34320       -0.36870
H         -1.52840        0.95460        1.31800
H         -2.00660        0.87270       -0.38230
H         -1.89540       -0.61070        0.58070
H          0.08520       -0.39830       -0.90770
H          0.63590        2.24760        0.53680
H          1.69950        1.49600       -0.65830
H          0.10010        2.08370       -1.14170
H          0.81950        0.16040        2.02300
H          0.93190       -2.28880        2.34780
H          0.07220       -2.56780       -0.61950
H          0.80350       -3.85940        0.33800
H         -0.76840       -3.20160        0.79600
H          1.99070       -1.44830       -1.21310
H          3.33310       -0.48330       -0.57380
H          3.32210       -2.23520       -0.34920
