18
gdb 20882	6.46988	1.10757	1.01978	2.2172	74.43	-0.2359	0.0264	0.2623	1191.503	0.155716	-344.013451	-344.005543	-344.004599	-344.046823	28.472
C         -0.00160        1.53080       -0.02560
C          0.15310        0.00910       -0.06700
C          0.61810       -0.55930        1.27800
N          0.74100       -2.00650        1.26630
C          1.87280       -2.74960        1.18640
C          1.48380       -4.07290        1.14540
C          0.07700       -4.02150        1.20380
N         -0.37040       -2.76940        1.27470
H          0.94640        2.02400        0.21780
H         -0.33750        1.91730       -0.99190
H         -0.73630        1.83560        0.72770
H         -0.79800       -0.46620       -0.32760
H          0.87320       -0.27860       -0.84240
H          1.59440       -0.14920        1.55530
H         -0.09260       -0.29230        2.06650
H          2.84690       -2.28600        1.17130
H          2.12150       -4.94000        1.09090
H         -0.62740       -4.84060        1.20400
