20
gdb 18126	3.92164	1.83827	1.39588	1.6124	73.2	-0.2461	0.0726	0.3187	928.3766	0.181306	-349.026991	-349.020172	-349.019228	-349.05836	27.047
C         -0.05190        1.56930       -0.02480
C          1.44260        1.93790        0.01370
C          2.12470        0.86910       -0.86710
C          3.45810        0.27860       -0.36550
O          3.39930       -1.11340       -0.64220
C          2.06550       -1.51390       -0.36210
C          1.16270       -0.36890       -0.86440
C         -0.03930        0.03020        0.01830
H         -0.62850        2.01920        0.78950
H         -0.49790        1.91340       -0.96640
H          1.63990        2.95960       -0.32310
H          1.81150        1.86360        1.04490
H          2.24940        1.24260       -1.88690
H          4.34370        0.67870       -0.86620
H          3.56860        0.45100        0.71940
H          1.89580       -2.47190       -0.86040
H          1.92790       -1.66120        0.72340
H          0.82910       -0.58470       -1.88280
H          0.12660       -0.30580        1.05010
H         -0.98130       -0.41470       -0.31470
