14
gdb 5652	5.1442	2.15947	1.53535	3.1059	70.11	-0.1912	-0.007	0.1842	772.7212	0.110963	-341.624969	-341.619236	-341.618292	-341.654507	23.069
C         -0.06190        1.49320        0.01070
C          1.41240        1.88130       -0.00140
C          2.21480        0.79230       -0.01480
C          1.34990       -0.37300       -0.01280
C          0.02760       -0.00370        0.00180
N         -0.80250       -1.08850        0.00400
C          0.02070       -2.12090       -0.00930
N          1.34730       -1.74440       -0.02000
H         -0.57320        1.89270        0.89610
H         -0.59000        1.90210       -0.86050
H          1.74760        2.91000        0.00090
H          3.29680        0.79480       -0.02520
H         -0.27120       -3.16040       -0.01210
H          2.13700       -2.36710       -0.03090
