15
gdb 14121	3.91449	1.79985	1.4179	13.1766	62.61	-0.1795	-0.0181	0.1614	863.1813	0.119887	-399.730154	-399.723043	-399.722099	-399.761907	26.27
O         -0.01060        0.04560        0.43160
C          0.09480        1.20810        0.00230
O          1.04180        1.92240       -0.35150
C         -1.27690        1.93810       -0.03650
C         -1.58700        3.19570       -0.78920
C         -1.61440        3.24310        0.69880
N         -2.91310        2.65160        1.20800
H         -2.93740        2.55800        2.22200
H         -3.77060        3.11770        0.90260
C         -2.54950        1.31310        0.50280
H         -0.68190        3.63440       -1.19950
H         -2.49690        3.33140       -1.37230
H         -1.04940        3.88220        1.36340
H         -3.34010        0.99900       -0.18260
H         -2.32940        0.55130        1.24910
