16
gdb 8541	4.0247	1.92072	1.56253	2.4435	64.3	-0.2502	0.0656	0.3158	825.1152	0.130402	-383.657572	-383.650763	-383.649819	-383.688077	27.366
O          0.24380        1.41200       -0.19130
C          0.10500        0.02160       -0.05650
C          0.07270       -0.62870        1.34380
C         -1.45050       -0.30510        1.54520
C         -1.81200       -1.76550        1.89020
C         -0.74480       -1.85760        0.78150
O         -0.24650       -2.96860        0.13020
C         -1.29860       -0.62200        0.01070
H         -0.35580        1.83960        0.42960
H          0.79760       -0.42480       -0.77390
H          0.83310       -0.65590        2.12690
H         -1.86530        0.60100        1.98120
H         -1.52850       -2.11810        2.88790
H         -2.82170       -2.09890        1.63030
H          0.22980       -3.51050        0.76870
H         -2.10390       -0.63830       -0.72510
