14
gdb 16601	3.32966	2.34069	1.54858	5.7706	64.37	-0.2414	-0.0543	0.1871	794.8327	0.109093	-378.73099	-378.724558	-378.723614	-378.761516	25.013
N         -0.06600        1.27600        0.18200
C          0.01430        0.01890        0.01070
N          1.11720       -0.80970       -0.15470
C          0.78060       -2.21190       -0.06740
C          0.14510       -2.67830        1.20700
C         -0.72210       -2.29670        0.00090
C         -1.22290       -0.88680       -0.05120
O         -2.35910       -0.51560       -0.16490
H          0.85780        1.71440        0.21180
H          2.00660       -0.50440        0.21450
H          1.36120       -2.88530       -0.68730
H          0.16840       -3.73650        1.44290
H          0.16450       -2.01490        2.06510
H         -1.29630       -3.07040       -0.49000
