12
gdb 16787	3.82873	2.26456	1.55287	2.6253	56.42	-0.2896	-0.0305	0.2591	757.794	0.085371	-414.680097	-414.674134	-414.67319	-414.710303	22.447
N         -0.06720        1.27040       -0.03550
C         -0.05030        0.01840        0.04460
O          1.08710       -0.77190        0.12060
C          0.74990       -2.11850        0.02000
O          1.56380       -2.98030        0.02260
N         -0.66600       -2.26860       -0.09760
C         -1.34270       -1.85370        1.15670
C         -1.21630       -0.90390        0.02050
H          0.87640        1.65970       -0.03350
H         -2.29360       -2.34580        1.32670
H         -0.72950       -1.69810        2.03930
H         -2.07150       -0.64170       -0.58920
