18
gdb 14373	3.83598	2.31769	1.96578	1.6011	71.33	-0.2369	0.0816	0.3185	758.1967	0.156628	-347.740756	-347.734911	-347.733967	-347.770209	25.351
C         -0.04290        1.49440       -0.18180
C          1.51750        1.55660        0.07520
C          1.32960        0.27930        0.92770
C          1.77720       -1.16080        1.31460
C          0.36650       -1.08890        2.02570
C          0.71430        0.37030        2.36350
O         -0.63650       -0.91980        0.98640
C          0.08690       -0.03500        0.12010
H         -0.60210        2.04890        0.57220
H         -0.39990        1.77180       -1.17530
H          2.07920        1.38320       -0.84680
H          1.91630        2.44070        0.57570
H          1.90970       -1.88110        0.50380
H          2.58480       -1.23850        2.04540
H          0.02730       -1.82970        2.74770
H          1.48640        0.48220        3.12810
H         -0.12610        1.03980        2.55380
H          0.30030       -0.55700       -0.82140
