18
gdb 19757	3.54151	2.20542	2.12965	1.6344	68.97	-0.2494	0.0784	0.3277	751.6145	0.157535	-347.81437	-347.808245	-347.8073	-347.844151	25.922
O          0.14140        1.40460        0.16050
C          0.04810        0.00010        0.01440
C         -1.36150       -0.53530       -0.20960
C         -1.57220       -0.58920       -1.71670
C         -0.28400       -0.09410       -2.37170
C          0.68550       -0.59190       -1.27570
C          0.28480       -2.07880       -1.14670
C         -1.21420       -1.84820       -0.95080
H         -0.48480        1.80800       -0.44900
H          0.51950       -0.41690        0.91080
H         -2.16910       -0.34630        0.48550
H         -2.55000       -0.45180       -2.15900
H         -0.09330       -0.56280       -3.34260
H         -0.24920        0.99220       -2.50960
H          1.74260       -0.37280       -1.41780
H          0.51490       -2.66200       -2.04460
H          0.75640       -2.56870       -0.28800
H         -1.92090       -2.65740       -0.82100
