17
gdb 4926	6.58371	1.23492	1.05366	2.3925	72.66	-0.1822	0.0514	0.2337	1122.4876	0.142098	-363.891492	-363.883098	-363.882154	-363.9244	30.362
C         -0.02770        1.40120       -0.01710
O          0.02970       -0.00810       -0.04610
C          0.63470       -0.58530        1.02580
C          1.19870        0.00900        2.13460
N          1.67840       -1.01810        2.92940
C          1.42960       -2.23370        2.34820
C          1.84070       -3.51740        2.99080
C          0.77840       -1.99500        1.15730
H          0.97900        1.84270        0.01160
H         -0.53430        1.71790       -0.93070
H         -0.59250        1.76140        0.85480
H          1.30210        1.03920        2.42620
H          2.14380       -0.88740        3.80970
H          1.37100       -3.65860        3.97250
H          1.54590       -4.35960        2.36090
H          2.92660       -3.57850        3.13730
H          0.43820       -2.73650        0.45170
