17
gdb 10658	2.86009	1.81283	1.37368	2.844	65.98	-0.2445	-0.0354	0.2091	945.1699	0.140172	-400.970898	-400.962272	-400.961328	-401.004018	31.032
C         -0.28540        1.38540        0.03750
N          0.04600       -0.03420        0.09630
C          1.39120       -0.45230       -0.20750
C          0.88840       -0.52180        1.20940
C          1.47720        0.37980        2.28060
O          0.53940        0.69100        3.29230
C          0.39170       -1.83790        1.70820
O          0.44150       -2.18160        2.86720
H          0.57570        2.05540        0.17240
H         -0.72470        1.59170       -0.94300
H         -1.02410        1.61170        0.81010
H          1.50040       -1.35460       -0.80530
H          2.14540        0.31300       -0.39550
H          2.36810       -0.11650        2.69390
H          1.80640        1.32880        1.85030
H          0.33910       -0.14560        3.73090
H         -0.06070       -2.48330        0.92580
