19
gdb 11950	3.01543	1.89194	1.43139	1.0361	71.86	-0.2151	0.0562	0.2712	943.5877	0.165228	-365.020297	-365.011866	-365.010922	-365.05281	31.748
C         -0.30750        1.28620        0.42900
C          0.13630       -0.10360        0.08990
C          0.64660       -0.61540       -1.26610
C          1.55250       -1.64060       -0.49890
C          0.98960       -1.08830        0.81770
C          1.71360       -1.01750        2.13450
O          0.94820       -0.37930        3.15350
N         -0.47960       -1.29910        0.74440
H          0.39390        2.02850        0.03210
H         -1.29430        1.50230        0.00130
H         -0.36160        1.41980        1.51320
H         -0.11770       -1.03760       -1.92330
H          1.22990        0.12940       -1.81340
H          1.35770       -2.70080       -0.68010
H          2.61840       -1.43690       -0.63130
H          2.02070       -2.02800        2.44580
H          2.63180       -0.42890        2.01910
H          0.41420       -1.05050        3.58770
H         -0.84750       -0.94900        1.63130
