20
gdb 12883	2.44481	2.18463	1.6734	1.3032	73.96	-0.2424	0.0808	0.3232	908.7652	0.177857	-349.005758	-348.997575	-348.996631	-349.03791	31.504
C          0.01860        1.63320        0.07100
C          0.09600        0.12090        0.10350
C          1.29030       -0.73440       -0.30930
C          2.68810       -0.13510       -0.36790
C          2.94820        0.49840        1.02780
C          1.91550       -0.13500        1.99370
C          0.81660       -0.73350        1.12080
O          0.16350       -1.86900        1.61970
H          0.93370        2.12030        0.41130
H         -0.18100        1.98810       -0.94660
H         -0.79840        1.99350        0.70700
H         -0.83670       -0.35240       -0.19820
H          1.07270       -1.58820       -0.94200
H          3.40520       -0.94030       -0.56290
H          2.81210        0.59620       -1.17430
H          3.97310        0.32040        1.36510
H          2.82750        1.58370        0.98730
H          2.35800       -0.96640        2.55290
H          1.54340        0.58640        2.73090
H         -0.50320       -1.57460        2.24950
