20
gdb 9147	4.56354	0.7882	0.71176	0.9817	82.04	-0.241	0.0477	0.2887	1672.1924	0.173831	-348.972471	-348.96196	-348.961015	-349.010481	35.609
C          0.13000        1.48340       -0.26010
C         -0.02040        0.06070        0.30850
C         -1.38780       -0.44420        0.24230
C         -2.52650       -0.83210        0.18760
C         -3.89560       -1.33860        0.09670
C         -3.91220       -2.84540       -0.21060
O         -4.56040       -1.03960        1.32290
C         -5.96570       -1.02480        1.22650
H          1.16920        1.81740       -0.18370
H         -0.16570        1.51470       -1.31230
H         -0.50070        2.18840        0.28800
H          0.64650       -0.62370       -0.23180
H          0.31730        0.04520        1.35280
H         -4.41100       -0.80720       -0.72250
H         -4.93750       -3.21230       -0.31160
H         -3.38360       -3.04550       -1.14660
H         -3.41770       -3.39250        0.59580
H         -6.34680       -0.69920        2.19760
H         -6.31390       -0.31880        0.45570
H         -6.39070       -2.01440        1.00220
