20
gdb 8010	2.85997	1.84105	1.58292	2.5068	70.09	-0.2477	0.0616	0.3094	929.7594	0.178193	-386.157771	-386.149667	-386.148723	-386.189936	31.88
C          0.06560        1.55110        0.04360
C          0.03840        0.02590        0.10280
C          0.61110       -0.68290       -1.16080
C          1.46210       -1.86800       -0.65440
O          2.84130       -1.45890       -0.75300
C          1.04820       -2.03660        0.81810
C          0.83920       -0.58530        1.28370
O          2.07360        0.07240        1.52640
H          1.09470        1.91510       -0.01440
H         -0.48340        1.92120       -0.82870
H         -0.38950        1.99040        0.93760
H         -1.00190       -0.30070        0.23280
H         -0.18810       -1.02740       -1.82230
H          1.25210       -0.01980       -1.74890
H          1.31390       -2.77770       -1.24900
H          3.38520       -2.16790       -0.39250
H          0.10440       -2.59240        0.87520
H          1.79290       -2.57210        1.41600
H          0.27850       -0.51900        2.22140
H          2.65350       -0.14630        0.78230
