20
gdb 20020	4.99757	1.04669	0.96615	1.7902	76.48	-0.2526	0.0889	0.3415	1290.4519	0.176214	-348.976177	-348.9675	-348.966555	-349.010063	31.829
C          0.37860        1.53110        0.11880
C         -0.33690        0.20960       -0.18880
C          0.27370       -0.49470       -1.37650
O          1.54840       -1.12610       -1.18410
C          0.42490       -1.95300       -1.51730
C         -0.01850       -2.96390       -0.51560
C         -1.06070       -3.98260       -0.91810
C          0.36710       -4.41160       -0.71350
H          1.43470        1.35170        0.34110
H          0.32780        2.21730       -0.73370
H         -0.07190        2.03330        0.97990
H         -0.30230       -0.44100        0.68990
H         -1.39680        0.39760       -0.40470
H          0.21670        0.08020       -2.30570
H          0.45990       -2.34340       -2.53880
H         -0.05020       -2.61340        0.50960
H         -1.80170       -4.26960       -0.18080
H         -1.43970       -3.94470       -1.93430
H          0.95410       -4.65930       -1.59180
H          0.61230       -4.99700        0.16530
