18
gdb 6380	5.2291	1.04836	0.90782	2.9911	65.58	-0.2561	0.0033	0.2595	1283.6433	0.151731	-422.118347	-422.109008	-422.108064	-422.153026	32.638
C          0.08980        1.37100        0.09720
O          0.21090       -0.05690        0.00780
C          0.51120       -0.53960       -1.20730
O          0.69720        0.17170       -2.17190
C          0.56990       -2.05090       -1.21560
C          1.45280       -2.59760       -2.35330
C          1.51440       -4.11940       -2.32980
O          0.94960       -2.21160       -3.61750
H          1.03270        1.85350       -0.17100
H         -0.69410        1.73300       -0.57240
H         -0.16580        1.58040        1.13550
H          0.90710       -2.40090       -0.23570
H         -0.45540       -2.41860       -1.35470
H          2.47240       -2.19970       -2.20990
H          2.13230       -4.47680       -3.15740
H          1.94200       -4.48380       -1.39070
H          0.51160       -4.54300       -2.44730
H          0.88110       -1.24630       -3.59160
