15
gdb 4849	6.64433	1.31105	1.11177	2.9078	65.29	-0.1936	0.0337	0.2273	1042.6856	0.120176	-396.0068	-395.99885	-395.997906	-396.039136	28.443
C          0.05040        1.35480       -0.09090
N         -0.04940       -0.08410        0.09440
C         -1.28600       -0.66220        0.05750
N         -2.44190       -0.07080        0.13820
C         -3.34670       -1.13040        0.12650
C         -2.70390       -2.31170        0.02680
N         -3.12130       -3.63380       -0.03570
O         -1.32490       -2.00880       -0.02070
H          1.07840        1.66460        0.10900
H         -0.23530        1.68020       -1.10070
H         -0.61350        1.85020        0.62000
H          0.68080       -0.64480       -0.31680
H         -4.41160       -0.96990        0.18560
H         -2.87650       -4.08750       -0.91030
H         -2.76090       -4.19890        0.72680
