17
gdb 9734	3.75385	1.52078	1.48577	3.5882	68.	-0.2964	0.0222	0.3186	928.2423	0.143182	-363.892389	-363.884562	-363.883617	-363.924941	29.212
O         -0.25980        1.37850        0.25360
C         -0.00370       -0.00120        0.00530
C          0.71030       -0.66160        1.20680
C         -0.42370       -0.79770        2.23130
C         -1.62400       -1.27250        1.38420
C         -1.38740       -0.70170       -0.04190
C          0.75860       -0.14680       -1.25000
N          1.37990       -0.24490       -2.21980
H          0.58610        1.83310        0.34230
H          1.08850       -1.64610        0.90860
H          1.56340       -0.06740        1.54850
H         -0.17730       -1.48420        3.04470
H         -0.63320        0.18180        2.67060
H         -1.64920       -2.36590        1.34710
H         -2.57850       -0.94650        1.80320
H         -2.13070        0.04060       -0.33820
H         -1.38840       -1.49110       -0.79610
