17
gdb 12629	3.30786	2.04348	1.37416	3.5084	71.35	-0.2238	-0.002	0.2217	917.7936	0.143173	-360.072281	-360.064198	-360.063254	-360.104842	29.065
C         -0.04900        1.56160       -0.00510
C          0.05170        0.03540        0.01340
N          0.80610       -0.48500       -1.14400
C          1.76090       -1.17290       -0.65500
N          1.82770       -1.25110        0.73300
C          2.82320       -1.93430        1.52140
C          0.77400       -0.49670        1.25220
N          0.45660       -0.26920        2.46220
H          0.94760        2.01270       -0.01620
H         -0.58670        1.89280       -0.89680
H         -0.57530        1.90450        0.88910
H         -0.96050       -0.38690       -0.01700
H          2.51000       -1.69480       -1.24420
H          3.53150       -2.43200        0.85600
H          3.37810       -1.23170        2.15520
H          2.36450       -2.69250        2.16730
H          1.08910       -0.72630        3.12060
