20
gdb 7460	3.04192	1.35588	1.18788	1.6233	67.29	-0.2436	0.0623	0.3058	1121.7297	0.174084	-423.277382	-423.267318	-423.266374	-423.311685	37.011
C          0.04150        1.59970        0.08610
C          0.02360        0.07500        0.08290
O          0.66410       -0.46440        1.24000
C         -1.40870       -0.48980       -0.04310
O         -2.09730        0.07350       -1.14810
C         -1.40660       -2.02370       -0.15170
C         -2.79650       -2.62340        0.03960
O         -0.90490       -2.28550       -1.47090
H          1.06860        1.96970        0.14580
H         -0.43400        1.99100       -0.81550
H         -0.51530        1.98970        0.94910
H          0.60970       -0.30200       -0.76290
H          0.29160       -0.02000        2.00980
H         -1.96860       -0.20090        0.85790
H         -1.82040       -0.45380       -1.91020
H         -0.71040       -2.41860        0.59880
H         -3.50860       -2.15810       -0.64740
H         -2.78560       -3.70470       -0.14150
H         -3.14810       -2.46620        1.06450
H         -1.02790       -3.21890       -1.66470
