15
gdb 10646	2.67247	1.87491	1.35751	3.4769	62.68	-0.2681	0.0054	0.2735	929.3215	0.116741	-399.774919	-399.766517	-399.765573	-399.807673	30.04
C          0.12550        1.16470       -0.30400
O         -0.08810       -0.12750        0.25910
C         -1.38070       -0.62320        0.10840
C         -1.75610       -1.23110       -1.24470
C         -1.40150       -2.13120       -0.09230
O         -0.19270       -2.80060       -0.04650
C         -2.39400        0.02780        0.90430
N         -3.20630        0.55770        1.53530
H          1.17660        1.40450       -0.13670
H         -0.08700        1.16820       -1.38030
H         -0.50280        1.91500        0.19020
H         -2.78960       -1.16620       -1.56530
H         -1.01150       -1.11180       -2.02460
H         -2.20290       -2.68600        0.38430
H          0.49750       -2.13000        0.05200
