19
gdb 17680	3.87759	1.51273	1.28065	2.4125	71.32	-0.2409	0.0906	0.3315	1021.8764	0.164276	-365.02435	-365.015686	-365.014742	-365.057319	31.947
C         -0.02850        1.47730       -0.14530
C          0.03630       -0.00900        0.09360
O          1.32100       -0.64530       -0.03020
C          0.66970       -0.67160        1.25170
C          1.35530        0.09750        2.36070
C          0.19330       -2.04040        1.66540
C          0.00570       -3.12040        0.67160
N          1.13990       -3.17200        1.61560
H          0.78440        2.01130        0.34930
H          0.03420        1.68630       -1.21840
H         -0.98230        1.87660        0.21650
H         -0.76340       -0.57260       -0.39120
H          1.75430        1.05020        2.01090
H          0.65580        0.28990        3.18140
H          2.18510       -0.49150        2.76500
H         -0.42870       -2.04090        2.55890
H         -0.75970       -3.87430        0.83130
H          0.22530       -2.88900       -0.36600
H          1.97330       -2.86510        1.11520
