14
gdb 14291	3.777	1.89285	1.84274	3.9755	56.49	-0.2658	0.0121	0.278	766.283	0.107761	-419.696963	-419.690317	-419.689373	-419.727848	25.137
O         -0.01160        1.33050        0.21870
C         -0.02630       -0.04890        0.03680
C         -1.38170       -0.72100       -0.01300
C         -2.56140        0.18630       -0.28210
C         -2.26580        0.82680       -1.64080
O         -2.88470        1.66420       -2.22210
O         -1.10860        0.29060       -2.15840
C         -0.53100       -0.62890       -1.26160
H          0.56430        1.72280       -0.44710
H          0.76990       -0.59970        0.53690
H         -1.52830       -1.65780        0.50920
H         -3.50170       -0.36860       -0.34820
H         -2.69070        0.98410        0.45240
H         -0.05550       -1.46360       -1.76090
