13
gdb 21124	5.27697	1.56173	1.21407	3.1031	68.31	-0.2573	-0.0739	0.1834	929.5628	0.094665	-394.700269	-394.693188	-394.692244	-394.732292	25.077
C          0.09150        1.44360        0.14500
N         -0.01680        0.00180        0.13400
C         -1.14060       -0.58770       -0.03770
C         -2.47630       -0.02950       -0.24690
N         -3.53910       -0.73390       -0.40880
O         -3.43860       -2.10750       -0.38770
N         -2.22560       -2.76480       -0.19700
C         -1.17710       -2.04540       -0.03750
H          0.80160        1.74520       -0.63410
H         -0.83870        2.00730       -0.00180
H          0.53220        1.75230        1.10030
H         -2.65590        1.03960       -0.27910
H         -0.24880       -2.59130        0.10860
