19
gdb 7358	4.36851	1.11204	0.90664	4.3306	71.25	-0.2351	0.0346	0.2697	1301.3433	0.162636	-402.205786	-402.195551	-402.194607	-402.242609	33.824
C          0.03750        1.39390        0.03720
O          0.04750       -0.01290        0.05640
C          0.63560       -0.55860       -1.08570
C          0.59590       -2.09100       -0.96760
O          0.10990       -2.63170        0.00490
N          1.13840       -2.79600       -2.01600
C          1.12170       -4.24790       -1.96690
C          1.72220       -2.22050       -3.21010
H          1.05600        1.81250       -0.00950
H         -0.53360        1.79010       -0.81820
H         -0.43820        1.72500        0.96310
H          0.10120       -0.23870       -1.99810
H          1.68090       -0.21780       -1.19450
H          0.54790       -4.65790       -2.80810
H          2.14220       -4.64810       -2.02240
H          0.66070       -4.55250       -1.02900
H          1.72920       -1.13300       -3.17300
H          2.75940       -2.55960       -3.33490
H          1.16340       -2.52560       -4.10560
