16
gdb 7766	3.37114	1.95216	1.28826	4.8208	67.44	-0.2609	-0.0442	0.2167	927.7412	0.131224	-383.794596	-383.787364	-383.78642	-383.826022	27.271
C         -0.00670        1.51270        0.07710
C          0.00160        0.00090       -0.07210
C          0.84000       -0.50300       -1.24560
C          0.98960       -1.99450       -1.16040
C          0.88710       -2.61660        0.01570
C          0.73920       -1.86330        1.28280
O          0.89310       -2.35900        2.36930
O          0.48390       -0.53110        1.18120
H          1.00930        1.88970        0.22750
H         -0.42470        1.98080       -0.81930
H         -0.61260        1.80550        0.93800
H         -1.02710       -0.36340       -0.20590
H          0.35640       -0.21340       -2.18520
H          1.82980       -0.02340       -1.24560
H          1.19800       -2.55270       -2.06910
H          0.99840       -3.68770        0.13240
