21
gdb 1092	4.10653	1.40201	1.38219	1.3499	70.67	-0.2609	0.0731	0.334	1017.7512	0.192336	-312.125621	-312.11614	-312.115196	-312.159175	34.638
C         -0.07380        1.56180        0.08370
C          0.02330        0.02470        0.03560
C          0.69560       -0.49010        1.32300
C         -1.40010       -0.55850       -0.04640
C          0.79590       -0.44420       -1.22040
C          2.24390        0.01650       -1.35570
O          2.74110       -0.53120       -2.57140
H          0.90690        2.03280        0.20450
H         -0.52540        1.95820       -0.83260
H         -0.69560        1.88340        0.92650
H          0.09630       -0.22960        2.20250
H          0.80180       -1.58060        1.30450
H          1.69120       -0.05920        1.46840
H         -1.91840       -0.21110       -0.94680
H         -1.37760       -1.65340       -0.07540
H         -1.99780       -0.25840        0.82120
H          0.79490       -1.54100       -1.25330
H          0.25900       -0.11020       -2.11710
H          2.30050        1.11560       -1.37150
H          2.84190       -0.32990       -0.49890
H          3.65460       -0.24930       -2.67390
