16
gdb 433	4.44325	3.84688	2.49161	1.3078	56.23	-0.2522	0.0751	0.3274	575.9494	0.142966	-271.622539	-271.615882	-271.614937	-271.652386	24.662
C         -0.12010        1.52560        0.03500
C         -0.00260        0.00360        0.02070
C          1.15390       -0.53700       -0.87550
C          2.04400       -0.66600        0.39200
C          0.74780       -0.59350        1.24300
O          0.72190        0.21280        2.39840
H          0.85080        2.00610        0.19060
H         -0.52400        1.88320       -0.91820
H         -0.78220        1.86100        0.83800
H         -0.98670       -0.43650       -0.16640
H          0.92050       -1.50760       -1.32090
H          1.50950        0.12950       -1.66520
H          2.67470       -1.55330        0.49170
H          2.65670        0.22510        0.55330
H          0.37480       -1.60520        1.46200
H          1.24150       -0.22110        3.08220
