16
gdb 9369	5.54976	0.90799	0.81567	1.8398	58.41	-0.2752	-0.0028	0.2724	1351.0697	0.128418	-458.034662	-458.025533	-458.024589	-458.069788	30.961
O         -0.02070        1.39420       -0.07580
C         -0.05710       -0.01770       -0.04930
C         -1.47300       -0.55670        0.03290
O         -2.14300       -0.12720       -1.17670
C         -3.41160       -0.52330       -1.32790
O         -4.01620       -1.21470       -0.54330
C         -4.03190       -0.00990       -2.61490
O         -5.34860       -0.46150       -2.74460
H         -0.53230        1.67390       -0.84260
H          0.44890       -0.45560       -0.92380
H          0.49130       -0.33260        0.84440
H         -1.49360       -1.64910        0.09090
H         -2.00560       -0.14630        0.89530
H         -3.98200        1.08980       -2.60500
H         -3.40750       -0.34540       -3.45660
H         -5.52630       -0.98370       -1.94830
