19
gdb 6575	3.74743	1.66652	1.46002	2.701	71.44	-0.2418	0.0692	0.311	947.1848	0.164271	-365.032012	-365.023676	-365.022732	-365.063971	32.431
C          0.05870        1.53680       -0.03900
C         -0.04790        0.04540        0.06460
C         -1.34880       -0.77410        0.02220
C         -0.70090       -1.78480        1.04150
C         -1.39820       -1.84400        2.39370
O         -0.43450       -3.08610        0.53730
C          0.57410       -0.93020        1.02850
N          1.08670       -0.78430       -0.32820
H          1.07890        1.86080        0.18180
H         -0.18990        1.87710       -1.05150
H         -0.62710        2.03220        0.65690
H         -2.21450       -0.25300        0.44140
H         -1.61680       -1.18730       -0.95630
H         -2.38780       -2.30850        2.30350
H         -0.80460       -2.43580        3.09740
H         -1.53720       -0.84240        2.81220
H         -1.27420       -3.54900        0.44340
H          1.24940       -0.78030        1.86500
H          0.82650       -1.58200       -0.90610
