20
gdb 6503	3.55919	1.31309	1.10731	2.8061	71.29	-0.2588	0.0659	0.3247	1146.2479	0.174503	-386.126427	-386.117097	-386.116153	-386.160315	34.575
C         -0.04920        1.56880        0.20240
C         -0.09320        0.04260        0.12000
O         -0.04450       -0.39200       -1.23980
C          0.99960       -0.61120        0.98450
C          0.82050       -2.10870        1.18740
C          1.08210       -3.01790        0.00550
C          0.93710       -2.65450        2.54970
O         -0.34770       -2.44070        1.96080
H          0.92800        1.95020       -0.12190
H         -0.81600        2.00140       -0.44570
H         -0.21960        1.91900        1.22530
H         -1.06430       -0.31060        0.48380
H          0.77000       -0.05030       -1.62600
H          1.98410       -0.41040        0.53770
H          0.99350       -0.12410        1.96580
H          2.12940       -2.94280       -0.30940
H          0.87610       -4.05710        0.27420
H          0.45500       -2.73370       -0.84170
H          1.21730       -3.69830        2.69030
H          1.18670       -1.99650        3.38200
