15
gdb 21595	3.43208	1.89422	1.29461	2.9391	63.67	-0.1939	0.0242	0.2181	904.9757	0.121444	-395.988821	-395.981281	-395.980337	-396.020463	28.374
N          0.14810        1.42010       -0.06960
C          0.05620        0.02250       -0.05270
C         -1.05410       -0.79810       -0.02540
N         -0.57580       -2.07590        0.05550
N          0.75990       -2.14190        0.07150
C          1.16010       -0.87030        0.01740
C          2.60410       -0.48640        0.02050
O          2.91890        0.42260       -1.04330
H          1.00120        1.71640       -0.53020
H         -0.65190        1.87340       -0.49030
H         -2.11050       -0.58460       -0.05350
H         -1.10840       -2.92760        0.08510
H          2.86460        0.06030        0.93370
H          3.22420       -1.39120       -0.01830
H          2.69130       -0.02170       -1.86740
