17
gdb 4102	3.18941	1.81762	1.23492	0.5562	72.68	-0.2352	0.0109	0.2461	977.5379	0.141812	-363.840516	-363.832645	-363.831701	-363.87272	29.649
C         -0.09270        1.58480        0.03720
C          0.00240        0.04920        0.01550
C          0.78550       -0.50620       -1.15420
C          1.81930       -1.25970       -0.78150
C          1.93530       -1.37830        0.71760
C          0.77430       -0.52970        1.19720
N          0.43130       -0.28130        2.39540
O          1.29170       -0.91580        3.31220
H          0.90410        2.03630        0.02560
H         -0.64390        1.95160       -0.83490
H         -0.60940        1.91810        0.94070
H         -1.02230       -0.35020        0.01430
H          0.50870       -0.28520       -2.17930
H          2.51130       -1.75010       -1.45680
H          1.84630       -2.41070        1.08220
H          2.89000       -1.01020        1.11640
H          0.92010       -0.64620        4.15870
