13
gdb 19219	3.16047	2.05223	1.46206	5.0522	63.22	-0.2667	-0.0369	0.2298	830.3047	0.095857	-361.462993	-361.45632	-361.455375	-361.494103	24.617
O         -0.06480        0.02330       -0.12180
C         -0.09940        1.20430        0.02810
C         -1.15540        2.25310       -0.04020
C         -0.99140        3.21890        1.13200
C         -0.05730        3.34950       -0.01170
C          1.05800        2.29260        0.10200
C          1.92920        2.33290        1.26150
N          2.59490        2.35830        2.20690
H         -2.07950        2.19360       -0.60010
H         -1.78320        3.95760        1.19160
H         -0.63810        2.86120        2.09400
H          0.00170        4.22230       -0.64650
H          1.65000        2.19840       -0.81370
