17
gdb 19264	3.22305	1.83544	1.3392	3.5793	68.58	-0.2339	-0.0181	0.2158	947.4774	0.14187	-363.83372	-363.825982	-363.825038	-363.865988	28.662
C          0.06430        1.50570        0.13980
C          0.02660        0.00340       -0.16340
C         -1.37730       -0.58030       -0.03120
C         -1.58740       -2.10600       -0.08950
N         -0.84960       -2.66380        1.04900
C         -2.24860       -2.14100        1.26000
C         -2.07660       -0.64080        1.36740
O         -2.45850        0.19350        2.13520
H          1.08520        1.89320        0.07050
H         -0.55530        2.06920       -0.56690
H         -0.31320        1.71250        1.14520
H          0.39350       -0.18090       -1.18170
H          0.69500       -0.53800        0.51310
H         -2.07850       -0.07050       -0.70590
H         -1.83580       -2.70130       -0.95850
H         -0.93930       -3.67980        1.01780
H         -3.02190       -2.78330        1.66140
