14
gdb 20366	6.31099	1.47133	1.3168	1.793	63.34	-0.2627	-0.023	0.2397	908.0222	0.109943	-374.878651	-374.872216	-374.871272	-374.909862	23.567
C         -0.11730        1.44670       -0.08110
C          1.27280        0.91590        0.09300
C          0.10300       -0.04950        0.04470
C         -0.31500       -0.74230        1.26870
N         -0.79420       -1.98380        1.29510
N         -1.01720       -2.14270        2.59570
N         -0.70980       -1.09750        3.34490
N         -0.25990       -0.19340        2.51560
H         -0.57560        1.94260        0.76650
H         -0.41560        1.82300       -1.05290
H          1.94520        0.92150       -0.75720
H          1.74700        1.05570        1.05740
H         -0.01360       -0.64830       -0.85040
H         -1.39210       -2.99360        2.98700
