20
gdb 7135	6.89158	0.72116	0.66617	1.0637	72.23	-0.2438	-0.0091	0.2346	1699.2082	0.17401	-386.163476	-386.153184	-386.15224	-386.200164	34.968
C          0.01680        1.60120        0.07880
C         -0.00400        0.07300       -0.00200
C          0.70400       -0.58950        1.17970
C          0.70060       -2.11180        1.13130
O          0.17360       -2.72500        0.22850
C          1.39610       -2.82440        2.28040
C          1.34980       -4.34070        2.16600
O          2.03150       -4.86730        3.29580
H          1.04250        1.98720        0.09060
H         -0.49580        2.04870       -0.77820
H         -0.47990        1.96050        0.98730
H         -1.03650       -0.28950       -0.04700
H          0.46610       -0.26300       -0.93240
H          1.74960       -0.25580        1.24870
H          0.24940       -0.28140        2.13270
H          2.43910       -2.48570        2.33380
H          0.94080       -2.50710        3.22780
H          0.30360       -4.67570        2.12830
H          1.82030       -4.65370        1.22330
H          2.01000       -5.82660        3.23520
