17
gdb 7409	3.0262	1.47451	1.34253	2.3927	65.51	-0.2422	-0.0313	0.2109	1010.4671	0.140179	-401.063255	-401.054011	-401.053067	-401.097708	32.627
C          0.24100        1.39040       -0.44770
C          0.13150       -0.10240       -0.04870
C          0.51950       -0.24380        1.42200
C          1.90990       -0.76950        1.70130
O         -0.23350        0.07110        2.32260
C         -1.27160       -0.62970       -0.41350
N         -2.26390       -0.28720        0.44830
O         -1.44720       -1.24490       -1.44750
H          1.26050        1.76190       -0.30400
H         -0.02090        1.50810       -1.50210
H         -0.43730        1.99950        0.15450
H          0.82170       -0.68050       -0.66730
H          2.65750       -0.20830        1.12990
H          2.12960       -0.71200        2.76780
H          1.97710       -1.81150        1.36630
H         -2.01640        0.03910        1.37280
H         -3.17840       -0.67330        0.27640
