10
gdb 3927	8.79957	2.19251	1.75519	2.7241	50.24	-0.291	-0.068	0.223	636.6098	0.068939	-355.525451	-355.520145	-355.5192	-355.55477	18.263
O         -0.06680       -0.04090        0.00030
C         -0.00280        1.15050        0.00890
N          1.19560        1.89140        0.00170
C          1.32110        3.25530        0.01090
N          2.58140        3.59810        0.00000
C          3.22040        2.37910       -0.01630
N          2.43730        1.32480       -0.01620
H         -0.87290        1.83150        0.02350
H          0.46970        3.91980        0.02530
H          4.29620        2.28590       -0.02870
