9
gdb 1202	11.37182	1.11152	1.01255	4.9028	58.96	-0.2881	-0.0871	0.2009	1014.6504	0.054698	-338.246643	-338.239603	-338.238659	-338.278067	23.314
N         -0.03160        1.34960        0.00880
C          0.06040       -0.00570        0.00140
O          1.09980       -0.63090       -0.01140
C         -1.23490       -0.68840        0.01000
C         -2.25800       -1.33160        0.01640
C         -3.42340       -2.04290        0.02370
N         -4.41850       -2.64160        0.03000
H          0.82070        1.88670        0.00330
H         -0.91790        1.82410        0.01910
