14
gdb 16942	3.80454	2.22816	2.03717	4.361	56.35	-0.2529	0.0003	0.2533	706.1481	0.109863	-419.710186	-419.70453	-419.703586	-419.739885	22.415
O         -0.02070       -0.00920       -0.06840
C          0.02200        1.18140       -0.02550
O         -1.09680        1.98200        0.05130
C         -0.61840        3.35140        0.11050
C          0.05030        3.50910        1.47870
O          1.23260        2.69550        1.34510
C          1.20240        2.16630        0.00470
C          0.61050        3.31440       -0.81700
H         -1.44160        4.02310       -0.12090
H          0.33100        4.54650        1.69490
H         -0.58140        3.12360        2.28490
H          2.17060        1.74160       -0.24340
H          0.35300        3.04620       -1.84320
H          1.21870        4.22010       -0.79000
