19
gdb 11560	3.61369	1.24236	1.01021	0.7276	76.86	-0.2239	0.0327	0.2566	1211.456	0.163739	-365.055895	-365.04669	-365.045746	-365.090536	32.55
C          0.13640        1.34140        0.05470
O         -0.01720       -0.06950       -0.07270
C          0.63140       -0.65340       -1.10890
C          0.37890       -2.14290       -1.11870
N          1.32990        0.04160       -1.90610
C          2.01310       -0.56270       -2.99490
C          2.13610        0.25260       -4.26390
C          3.34270        0.04250       -3.39000
H          1.18790        1.61000        0.19280
H         -0.23260        1.85760       -0.83660
H         -0.44910        1.62470        0.93090
H         -0.09720       -2.44990       -2.05480
H          1.31820       -2.69660       -1.02890
H         -0.27110       -2.41580       -0.28750
H          1.92200       -1.64000       -3.12810
H          2.08070       -0.26970       -5.21260
H          1.67030        1.23080       -4.25040
H          3.68250        0.88030       -2.79300
H          4.12550       -0.62570       -3.73180
