17
gdb 12399	2.95187	2.13338	1.32032	3.6696	64.07	-0.2433	0.0061	0.2494	917.1771	0.144486	-401.037707	-401.030171	-401.029227	-401.069651	28.227
N         -0.08190        1.49730        0.04800
C         -0.05600        0.04500       -0.05810
C         -1.45950       -0.55660        0.02620
C         -1.36820       -2.06930       -0.16670
C         -0.74780       -2.37210       -1.52210
O          0.50360       -1.69950       -1.75720
C          0.74880       -0.45760       -1.27580
O          1.64660        0.18740       -1.74930
H          0.85610        1.84160       -0.14390
H         -0.65770        1.87310       -0.70250
H          0.51520       -0.33570        0.80350
H         -1.90920       -0.29040        0.98650
H         -2.09650       -0.12020       -0.75650
H         -0.75990       -2.51420        0.63020
H         -2.35550       -2.54110       -0.12070
H         -0.52540       -3.43550       -1.63980
H         -1.43590       -2.08160       -2.32710
