15
gdb 5554	3.39816	1.79164	1.21856	3.1567	65.06	-0.1831	0.0306	0.2136	947.5001	0.120767	-396.007909	-396.000032	-395.999088	-396.040627	28.503
N          0.07830        1.43060       -0.04070
C         -0.01460        0.03360       -0.01210
C         -1.13490       -0.75950        0.10730
C         -2.58580       -0.48030        0.23590
O         -3.29890       -1.40600       -0.58980
N         -0.63620       -2.05410        0.17710
C          0.71100       -1.97840        0.07800
N          1.12540       -0.73170       -0.02520
H          0.99460        1.70630       -0.37200
H         -0.63640        1.86740       -0.60920
H         -2.92280       -0.58270        1.28200
H         -2.78040        0.56260       -0.05790
H         -4.23390       -1.33500       -0.37220
H         -1.20840       -2.88130        0.14860
H          1.34480       -2.85230        0.07700
