13
gdb 4727	6.82123	1.28469	1.0825	5.1426	70.86	-0.2028	-0.0193	0.1835	1007.5278	0.098002	-357.691841	-357.684661	-357.683716	-357.723091	26.662
N         -0.02190        1.43420        0.15700
C          0.00990        0.03620        0.04570
C         -1.08070       -0.82070        0.01740
N         -0.61190       -2.10690       -0.01090
C          0.76120       -2.09660       -0.00680
C          1.17320       -0.77090        0.03070
C          1.51430       -3.28790       -0.03930
N          2.12180       -4.27580       -0.06770
H          0.77650        1.87780       -0.27750
H         -0.87030        1.84300       -0.21170
H         -2.13800       -0.61100        0.02300
H         -1.17680       -2.93750       -0.04130
H          2.19830       -0.43580        0.05050
