14
gdb 373	6.84522	2.20034	1.78254	2.8538	54.01	-0.2695	0.0286	0.298	689.9612	0.119956	-266.626759	-266.619585	-266.618641	-266.657544	24.891
C         -0.06280        1.55190        0.02430
C          0.01450        0.02440        0.00580
C          0.76790       -0.51540       -1.22690
N          2.16050       -0.06020       -1.22830
C          0.64480       -1.98880       -1.29830
N          0.59330       -3.14310       -1.34770
H          0.93560        1.99320       -0.00630
H         -0.62320        1.92780       -0.83890
H         -0.57090        1.89940        0.92830
H          0.51880       -0.34520        0.90740
H         -0.98990       -0.41170        0.01440
H          0.29080       -0.10910       -2.12760
H          2.66130       -0.49070       -0.45530
H          2.62820       -0.36250       -2.07740
