19
gdb 1568	6.80381	1.09962	1.00367	0.2392	64.19	-0.2584	0.0704	0.3288	1181.6462	0.169589	-348.053386	-348.044152	-348.043208	-348.087167	32.434
C          0.00690        1.54640        0.09620
C         -0.00850        0.02040       -0.01480
C          0.71440       -0.50240       -1.26260
O          2.07110       -0.05240       -1.30770
C          0.62730       -2.02670       -1.38720
C          1.27770       -2.56280       -2.65600
O          1.15530       -3.97880       -2.64140
H          1.03260        1.92370        0.07280
H         -0.53350        2.00670       -0.73850
H         -0.46480        1.88190        1.02460
H          0.46320       -0.42580        0.87340
H         -1.04170       -0.34840       -0.02580
H          0.25610       -0.04490       -2.15030
H          2.52340       -0.42670       -0.54270
H          1.10950       -2.49620       -0.51820
H         -0.42320       -2.33990       -1.36610
H          0.77790       -2.12890       -3.53810
H          2.32940       -2.24660       -2.69010
H          1.60580       -4.32470       -3.41720
