19
gdb 18274	4.14334	1.50639	1.25227	1.6879	70.67	-0.2325	0.0786	0.3111	1001.1522	0.167726	-365.045329	-365.037727	-365.036782	-365.077231	29.26
O         -0.06480        1.41500       -0.05170
C          0.00270       -0.00340        0.03080
C         -1.41930       -0.54490        0.01290
C         -2.19850       -0.20950       -1.28650
C         -3.22820       -1.35100       -1.46670
C         -2.57740       -2.54470       -0.79190
N         -1.15990       -2.73160       -1.17890
C         -1.49790       -2.06150        0.10110
H          0.83190        1.75410       -0.12320
H          0.55730       -0.43130       -0.81780
H          0.51260       -0.31980        0.95630
H         -1.95220       -0.12980        0.87930
H         -2.66230        0.77730       -1.24410
H         -1.50240       -0.20660       -2.12890
H         -4.16750       -1.12220       -0.94840
H         -3.46890       -1.53250       -2.51920
H         -3.16720       -3.42260       -0.54650
H         -0.89050       -3.69300       -0.98560
H         -1.25610       -2.56440        1.03280
