12
gdb 3708	7.566	2.16842	1.70487	2.6757	52.25	-0.241	0.0111	0.2521	696.961	0.091162	-356.714706	-356.708346	-356.707402	-356.744664	23.105
C         -0.00970        1.46990        0.02960
C          0.00610       -0.01930       -0.00020
N         -0.08970       -0.68470       -1.12100
O         -0.03160       -2.04180       -0.69120
C          0.09180       -1.99320        0.63740
N          0.22190       -3.16990        1.30180
N          0.11810       -0.78800        1.13700
H          0.91530        1.84860        0.47460
H         -0.11330        1.86900       -0.98030
H         -0.83980        1.82700        0.64650
H         -0.12010       -3.99470        0.83520
H          0.05400       -3.12310        2.29380
