16
gdb 14444	4.22132	2.08408	1.7931	0.6499	63.04	-0.2208	0.0792	0.3	763.3759	0.131899	-383.701942	-383.695646	-383.694702	-383.731939	25.61
O         -0.07940        1.39790       -0.05250
C          0.05200        0.02200       -0.04010
C          0.87360       -0.80350       -1.02890
C         -0.12000       -1.98760       -0.77310
C          0.38620       -2.85980        0.37530
O          0.52730       -1.95190        1.47760
C         -0.27100       -0.82610        1.17960
C         -1.08560       -0.99660       -0.06210
H          0.62650        1.77460        0.48500
H          0.77160       -0.40590       -2.04170
H          1.93180       -0.97930       -0.80360
H         -0.47620       -2.53160       -1.64650
H         -0.33060       -3.65610        0.62660
H          1.36300       -3.31340        0.17770
H         -0.67510       -0.32470        2.05140
H         -2.15750       -0.89640       -0.16330
