18
gdb 12465	3.23348	1.84332	1.23917	3.7202	75.39	-0.2368	-0.0466	0.1902	978.39	0.155901	-347.840318	-347.832963	-347.832019	-347.872335	27.989
O         -0.04240        0.56270        1.36480
C         -0.06160        1.35800        0.44200
C         -1.39790        1.94230       -0.00040
C         -1.60540        2.27040       -1.48260
C         -0.75940        3.44550       -1.98460
C          0.69190        3.09680       -2.32090
C          1.54110        2.43310       -1.27580
C          1.23570        1.74310       -0.16790
H         -2.15670        1.23950        0.35460
H         -1.53740        2.86280        0.58610
H         -1.41970        1.38150       -2.09970
H         -2.66470        2.51570       -1.61750
H         -1.21580        3.86320       -2.88930
H         -0.77850        4.24730       -1.23500
H          0.71120        2.44330       -3.20840
H          1.21290        4.00840       -2.64220
H          2.60600        2.49890       -1.50030
H          2.05820        1.31580        0.40080
