15
gdb 2954	4.61639	2.27939	2.13711	1.9197	52.89	-0.2475	0.0774	0.3248	678.5549	0.12607	-382.782995	-382.776289	-382.775345	-382.813994	24.045
O         -0.21010        1.43660        0.39040
C         -0.03650        0.04990        0.19620
C         -1.36540       -0.65030       -0.08380
O         -2.23670       -0.63540        1.03240
C         -3.27790        0.29490        0.76390
C         -3.37170        0.24190       -0.75830
O         -2.01210        0.05170       -1.14080
H         -0.68860        1.74540       -0.38850
H          0.65610       -0.16900       -0.63300
H          0.39140       -0.36130        1.11500
H         -1.19780       -1.70310       -0.36130
H         -4.18480       -0.03950        1.27410
H         -3.00590        1.29860        1.11530
H         -3.99090       -0.60220       -1.09330
H         -3.73610        1.16280       -1.21970
