17
gdb 1925	4.60054	2.74164	2.39843	1.7581	63.42	-0.2348	0.0844	0.3193	648.2453	0.149988	-309.702237	-309.696182	-309.695238	-309.731606	24.498
C         -0.03240        1.52500        0.02400
C          0.03380        0.01690        0.02770
C          0.96260       -0.81510       -0.92340
C          0.61640       -1.91990        0.10210
C          0.66680       -0.82290        1.19120
O         -0.79160       -2.12870       -0.09560
C         -1.27490       -0.76940       -0.15820
H          0.95960        1.96600        0.16440
H         -0.43400        1.90120       -0.92400
H         -0.67910        1.89470        0.82820
H          0.64280       -0.97280       -1.95690
H          2.00360       -0.48850       -0.87990
H          1.12510       -2.88000        0.16970
H          1.67940       -0.49700        1.43740
H          0.07590       -0.98770        2.09610
H         -2.00410       -0.58830        0.64160
H         -1.75690       -0.58180       -1.12610
