15
gdb 6696	7.21146	0.75747	0.70741	6.3619	76.06	-0.2771	-0.0362	0.2409	1522.5921	0.117059	-362.653537	-362.644638	-362.643694	-362.687592	30.985
C         -0.02810        1.56390        0.06900
C          0.02060        0.03740        0.02770
O          0.75550       -0.50270        1.10920
C         -1.40970       -0.56150       -0.03850
C         -1.42000       -2.01020       -0.12810
C         -1.42400       -3.21520       -0.21300
C         -1.43150       -4.57680       -0.30700
N         -1.44160       -5.73580       -0.38800
H          0.98650        1.96520        0.12730
H         -0.51430        1.97500       -0.82130
H         -0.58630        1.91270        0.94700
H          0.56380       -0.28740       -0.86630
H          0.38120       -0.16430        1.93070
H         -1.97030       -0.24760        0.85340
H         -1.94190       -0.14070       -0.90130
