17
gdb 18117	4.30268	2.0156	1.46638	3.8226	68.65	-0.2416	0.0318	0.2735	854.5583	0.146078	-363.889045	-363.882746	-363.881802	-363.919398	24.842
C         -0.02170        1.38840        0.03830
C          1.41250        1.96300       -0.04980
C          2.14230        0.79240       -0.71880
C          3.57180        0.32920       -0.41380
C          3.38150       -1.22390       -0.35590
N          1.98690       -1.46480        0.07700
C          1.38190       -0.37340       -0.13260
O          0.12090       -0.04500        0.20420
H         -0.59630        1.76160        0.88880
H         -0.59060        1.57690       -0.88020
H          1.44120        2.90360       -0.60380
H          1.81020        2.14130        0.95510
H          1.96730        0.82380       -1.80400
H          4.31430        0.64620       -1.14970
H          3.88830        0.69760        0.56860
H          3.55370       -1.68490       -1.33850
H          4.07260       -1.70230        0.34450
