16
gdb 10436	3.15094	1.71817	1.37995	1.5957	60.8	-0.2632	-0.0478	0.2154	917.0839	0.129366	-420.853038	-420.84497	-420.844026	-420.886211	28.407
O          0.13970        1.30440       -0.26740
C          0.05120       -0.07620        0.01200
C         -1.39960       -0.55210        0.10120
C         -2.17920       -0.52130       -1.24720
O         -2.21680       -1.95820       -1.32090
C         -1.61260       -2.08410       -0.02300
C         -2.14520        0.10660        1.23120
O         -1.71970        1.02590        1.89080
H         -0.21960        1.75280        0.50870
H          0.55180       -0.59950       -0.80970
H          0.57690       -0.34140        0.94270
H         -3.18640       -0.08670       -1.20420
H         -1.62300       -0.06090       -2.07020
H         -0.68930       -2.67570       -0.04350
H         -2.30050       -2.52290        0.71250
H         -3.16150       -0.30460        1.42570
