20
gdb 17925	2.74886	2.28669	2.2863	0.3286	77.92	-0.25	0.0868	0.3369	808.7068	0.179038	-311.838802	-311.831965	-311.831021	-311.86917	28.294
C         -0.05060        1.55130        0.01180
C         -0.00350        0.05180        0.00290
C          0.64680       -0.86130       -1.11000
C          1.54020       -1.51190       -0.02500
C          0.67490       -0.87310        1.08930
C         -0.68240       -1.59000        1.29620
C         -1.24300       -0.92790        0.01340
C         -0.71490       -1.57680       -1.28960
H          0.95760        1.98300        0.00250
H         -0.58390        1.93980       -0.86440
H         -0.56330        1.92990        0.90440
H          1.13840       -0.47920       -2.00660
H          1.63610       -2.60350       -0.03210
H          2.54480       -1.07730       -0.03550
H          1.18950       -0.50030        1.97690
H         -0.67790       -2.68480        1.34350
H         -1.19270       -1.20810        2.18600
H         -2.28390       -0.59950        0.02840
H         -1.24780       -1.18640       -2.16230
H         -0.71120       -2.67110       -1.34810
