20
gdb 3014	3.33079	2.29796	1.47477	0.9629	71.47	-0.2292	0.0895	0.3188	892.5628	0.182447	-291.01782	-291.009529	-291.008585	-291.05003	30.72
C         -0.07820        1.57670       -0.01820
C         -0.05340        0.04600        0.00210
C         -1.42980       -0.63750        0.00440
C         -1.27740       -2.15880       -0.06590
N         -2.16710       -0.29130        1.22410
C         -3.05050        0.86930        1.17310
C         -3.60960       -0.50820        1.19770
H          0.93790        1.97740       -0.09030
H         -0.64370        1.95710       -0.87670
H         -0.53010        1.98400        0.88990
H          0.49710       -0.31730       -0.87480
H          0.49860       -0.30100        0.88410
H         -1.98900       -0.29970       -0.89110
H         -2.25250       -2.65460       -0.08390
H         -0.73140       -2.45190       -0.96770
H         -0.72810       -2.52650        0.80680
H         -3.06870        1.49350        2.06230
H         -3.12550        1.41420        0.23360
H         -4.05700       -0.87380        0.27400
H         -4.04690       -0.91580        2.10480
