20
gdb 15423	5.32403	0.87249	0.81791	2.4872	73.1	-0.2539	0.0844	0.3383	1476.1348	0.174518	-386.110152	-386.100499	-386.099554	-386.145644	33.272
C         -0.14280        1.45730       -0.51030
C         -0.02350        0.18430        0.33670
C         -1.33550       -0.56340        0.40710
O         -1.74710       -1.28960       -0.75760
C         -1.48380       -2.02610        0.44110
C         -0.32960       -2.99390        0.43600
O         -0.82740       -4.26070        0.06430
C          0.17100       -5.25150        0.03290
H          0.80910        1.99460       -0.55150
H         -0.44130        1.21010       -1.53330
H         -0.89460        2.13870       -0.09720
H          0.75550       -0.46290       -0.07680
H          0.28390        0.44200        1.35880
H         -2.14550        0.01380        0.86190
H         -2.37650       -2.43700        0.91590
H          0.44740       -2.65840       -0.26640
H          0.12370       -3.04030        1.44310
H          0.95840       -5.01680       -0.70090
H          0.64930       -5.38170        1.01730
H         -0.30910       -6.19020       -0.25340
