5
gdb 1	157.7118	157.70997	157.70699	0.	13.21	-0.3877	0.1171	0.5048	35.3641	0.044749	-40.47893	-40.476062	-40.475117	-40.498597	6.469
C         -0.01270        1.08580        0.00800
H          0.00220       -0.00600        0.00200
H          1.01170        1.46380        0.00030
H         -0.54080        1.44750       -0.87660
H         -0.52380        1.43790        0.90640
