16
gdb 15593	3.56621	1.801	1.40362	4.4936	64.33	-0.2443	0.0239	0.2683	889.8251	0.132379	-379.929076	-379.921474	-379.92053	-379.961343	28.067
O         -0.37140        1.48730       -0.29340
C         -0.05090        0.13680       -0.04050
C         -1.36880       -0.63510        0.03720
C         -1.71650       -0.82790       -1.44690
N         -0.42730       -1.05150       -2.13210
C          0.65010       -0.55760       -1.26040
C          1.54250        0.38950       -1.94680
N          2.25150        1.16590       -2.42750
H          0.43090        1.95980       -0.54660
H          0.56900        0.03480        0.86020
H         -1.20550       -1.60010        0.52960
H         -2.11760       -0.07430        0.60020
H         -2.39420       -1.66510       -1.63130
H         -2.18750        0.07970       -1.83860
H         -0.28570       -2.03040       -2.33850
H          1.27860       -1.37600       -0.88510
