17
gdb 8686	2.72029	1.66554	1.30734	2.7371	64.32	-0.2905	0.0207	0.3112	999.0411	0.14033	-401.01201	-401.002843	-401.001899	-401.045564	33.013
C         -0.00280        1.57800        0.09580
C         -0.04770        0.05100        0.00320
C          0.69110       -0.51360       -1.21760
O          2.03960       -0.09800       -1.16270
C          0.64620       -2.05870       -1.25850
O          1.49110       -2.54620       -2.28680
C          0.06940       -0.02720       -2.48320
N         -0.39770        0.28760       -3.49310
H          1.03010        1.93180        0.12930
H         -0.49460        2.04180       -0.76470
H         -0.51420        1.91880        1.00020
H          0.42520       -0.39400        0.88570
H         -1.08520       -0.30150       -0.02550
H          2.52430       -0.69820       -1.74860
H          1.05970       -2.43180       -0.31730
H         -0.38590       -2.41650       -1.36220
H          1.05600       -2.38840       -3.13350
