15
gdb 3613	4.95043	3.63948	2.72594	0.924	67.04	-0.2073	-0.0286	0.1787	555.8703	0.126737	-271.277972	-271.27289	-271.271946	-271.306301	21.314
C         -0.15580        1.31690        0.11940
C          1.40890        1.36230       -0.05820
C          2.24120        0.01200       -0.02460
C          1.71700       -1.31230        0.56340
C          0.22310       -1.09310        0.34450
C          0.03680       -0.06950       -0.51310
C          1.36450        0.35610       -1.17180
H         -0.59410        1.34710        1.12120
H         -0.60250        2.09340       -0.51280
H          1.97640        2.29040       -0.06020
H          3.31390        0.19110       -0.08350
H          2.19170       -2.16710        0.05980
H          1.89430       -1.43940        1.63850
H         -0.47540       -1.30090        1.15090
H          1.59070        0.45870       -2.22490
