13
gdb 573	7.39757	2.68675	2.36455	0.8803	54.94	-0.239	0.0381	0.2771	568.5035	0.107234	-249.281074	-249.274838	-249.273894	-249.310679	22.525
C         -0.31290       -0.39840       -0.97750
C         -0.03330        0.37830       -0.10250
C          0.32780        1.34840        0.93690
N          1.12000        2.51210        0.52280
C          2.12640        2.34000       -0.51920
C          0.87200        3.09740       -0.79040
H         -0.57060       -1.09620       -1.73570
H         -0.58780        1.72890        1.40600
H          0.89160        0.83560        1.72570
H          3.06400        2.86070       -0.34700
H          2.21580        1.36450       -0.99180
H          0.14480        2.61490       -1.43950
H          0.87360        4.18320       -0.82040
