14
gdb 21916	5.08711	1.79739	1.41683	1.3183	64.26	-0.2459	0.0157	0.2616	835.2701	0.109807	-378.696417	-378.690051	-378.689107	-378.727091	23.948
O          0.26070        1.34720        0.30540
C          0.09400       -0.01380        0.03740
C         -1.39240       -0.60040        0.01410
N         -1.08400       -0.97820       -1.37120
N         -1.47830       -1.66960       -2.44120
C         -0.38320       -1.59740       -3.22320
C          0.70020       -0.89350       -2.63230
C          0.17630       -0.51380       -1.40800
H         -0.15010        1.84860       -0.40820
H          0.73940       -0.54480        0.74110
H         -1.58480       -1.44830        0.67660
H         -2.18120        0.14990        0.11380
H         -0.40830       -2.05620       -4.20140
H          1.67480       -0.71240       -3.05290
