14
gdb 20440	5.04359	2.15186	1.55032	5.8404	62.98	-0.2157	0.0149	0.2306	768.3502	0.111853	-374.891656	-374.885808	-374.884864	-374.921607	22.346
C          0.02590        1.46190        0.06370
C          1.51790        1.86200       -0.10940
N          2.14130        0.56240        0.06280
N          3.42040        0.13190        0.18100
N          3.35640       -1.16940        0.15730
C          2.05990       -1.58760       -0.00660
C          1.27480       -0.45930       -0.07730
N         -0.00920        0.02650       -0.32000
H         -0.27640        1.60390        1.10980
H         -0.63680        2.05160       -0.57310
H          1.72570        2.25910       -1.10890
H          1.85580        2.58170        0.63770
H          1.80170       -2.63140       -0.05300
H         -0.76260       -0.50060        0.09930
