20
gdb 12645	2.71538	2.0286	1.367	1.6077	76.73	-0.2337	0.0254	0.2591	978.4562	0.176774	-349.026743	-349.018206	-349.017262	-349.059208	32.704
C         -0.11320        1.58220       -0.03120
C          0.07460        0.06340       -0.00600
C          0.86720       -0.50830       -1.21840
O          1.88400        0.37990       -1.66600
C          1.47500       -1.82340       -0.67790
C          1.60490       -1.53650        0.79970
C          0.84520       -0.50500        1.18260
C          0.67470        0.01670        2.57520
H          0.84630        2.10590       -0.03160
H         -0.65160        1.88950       -0.93300
H         -0.68990        1.92230        0.83480
H         -0.92580       -0.39960       -0.01040
H          0.22600       -0.66130       -2.09060
H          2.51190        0.47970       -0.94070
H          0.80630       -2.67800       -0.85690
H          2.42010       -2.04940       -1.18330
H          2.20990       -2.13930        1.46950
H          1.28530       -0.54200        3.28980
H          0.94970        1.07590        2.64760
H         -0.37260       -0.05240        2.89800
