12
gdb 1391	4.85645	1.42722	1.15584	4.1824	59.11	-0.2796	-0.0099	0.2697	979.765	0.088005	-323.351196	-323.343089	-323.342145	-323.384893	26.523
C         -0.02120        1.48240        0.01250
C          0.01750        0.02880       -0.01090
C          0.05700       -1.17370       -0.02820
C          0.06400       -2.63750       -0.05070
O         -1.19880       -3.21580        0.22830
C          0.59930       -3.12850       -1.34690
N          0.99640       -3.52350       -2.35700
H          0.74870        1.88500        0.67880
H          0.14630        1.89720       -0.98680
H         -0.99250        1.84210        0.36790
H          0.72820       -3.01660        0.73590
H         -1.84100       -2.82320       -0.37510
