13
gdb 20529	5.04452	1.68033	1.27046	4.6246	59.77	-0.2713	-0.0617	0.2097	883.7574	0.096292	-394.819561	-394.812677	-394.811732	-394.851063	24.364
C         -0.00210        1.52180        0.00850
C          0.08470        0.01530        0.00150
O          1.11050       -0.61220       -0.00920
N         -1.16030       -0.66940        0.00870
C         -2.45620       -0.18900        0.02110
N         -3.31350       -1.16420        0.02410
N         -2.58650       -2.35550        0.01320
C         -1.32650       -2.04140        0.00440
H          1.01040        1.92330        0.00170
H         -0.54530        1.88400       -0.87000
H         -0.53050        1.87660        0.89890
H         -2.69990        0.86100        0.02740
H         -0.48790       -2.71760       -0.00520
