21
gdb 15428	4.72962	0.84877	0.79918	2.2604	75.7	-0.2459	0.072	0.3178	1506.6099	0.188493	-366.237867	-366.228355	-366.227411	-366.273033	34.048
C         -0.35660        1.47080       -0.02140
C         -0.20680       -0.04170       -0.20090
C          1.02880       -0.42900       -1.02520
C          1.15020       -1.92680       -1.19700
N          0.35220       -2.55380       -2.26860
C          1.82890       -2.62150       -2.32480
C          2.44070       -1.94230       -3.52870
O          2.10860       -2.63840       -4.71910
H          0.51060        1.89790        0.49480
H         -0.44560        1.97650       -0.98930
H         -1.24710        1.71690        0.56540
H         -0.15220       -0.52540        0.78370
H         -1.09740       -0.44880       -0.69480
H          0.97040        0.05260       -2.00620
H          1.93540       -0.04760       -0.53550
H          1.18330       -2.46690       -0.24950
H         -0.03370       -3.44080       -1.95850
H          2.27930       -3.58590       -2.09320
H          2.12130       -0.89260       -3.58260
H          3.53360       -1.95420       -3.45690
H          1.14550       -2.69870       -4.72190
