15
gdb 19112	4.60428	2.19752	2.1538	0.4408	61.47	-0.2359	0.0631	0.299	684.4927	0.121145	-362.568277	-362.562735	-362.56179	-362.597633	23.04
O          0.12720        1.45160       -0.10030
C          0.02930        0.05840       -0.01880
C          0.28490       -0.68110        1.32210
C         -0.85680       -0.26250        2.27090
C         -2.02430       -0.23540        1.33300
C         -1.35550       -0.64300        0.00430
C         -0.74250       -1.77790        0.88880
N         -1.68510       -1.49710        2.07030
H         -0.42520        1.82160        0.59820
H          0.65920       -0.35240       -0.81470
H          1.27740       -0.86970        1.72390
H         -0.81570        0.24490        3.22700
H         -2.95210        0.29450        1.51080
H         -1.96660       -0.79420       -0.88210
H         -0.52160       -2.79710        0.58440
