16
gdb 16877	4.15262	1.89984	1.43562	3.9315	65.3	-0.218	0.0345	0.2525	854.9288	0.133545	-379.933611	-379.926925	-379.925981	-379.964384	26.355
O         -0.00880       -0.04360       -0.23040
C         -0.04000        1.15850       -0.05980
C         -1.34050        1.95660        0.04600
N         -1.17410        3.05950        0.99080
C         -0.16480        3.99710        0.57760
C          1.08920        4.10360        1.41970
C          1.10430        3.34910        0.10490
N          1.09070        1.92040        0.07020
H         -1.62990        2.27390       -0.97280
H         -2.10510        1.26700        0.40780
H         -2.05240        3.51580        1.19900
H         -0.48730        4.88400        0.03180
H          1.61490        5.05120        1.46300
H          1.09690        3.51020        2.32590
H          1.62270        3.81820       -0.72770
H          1.96260        1.41100        0.05400
