17
gdb 1948	8.12432	1.46687	1.38058	0.8831	70.76	-0.253	0.052	0.3049	911.2808	0.147597	-272.544482	-272.536998	-272.536054	-272.575756	28.164
C         -0.20660        1.50800       -0.02240
C          0.00010       -0.00390        0.00580
C          1.17150       -0.50840       -0.88700
C          2.07550       -0.59990        0.38660
C          0.77480       -0.52280        1.25260
C          2.94590       -1.74630        0.54030
C          3.64870       -2.71520        0.66400
H          0.73160        2.04670        0.15520
H         -0.59580        1.83440       -0.99300
H         -0.91870        1.82270        0.74840
H         -0.95490       -0.50510       -0.17470
H          0.98170       -1.49840       -1.30710
H          1.51710        0.15500       -1.68410
H          2.65790        0.32000        0.50080
H          0.81000        0.12930        2.12910
H          0.44930       -1.51770        1.56380
H          4.27470       -3.56540        0.77440
