15
gdb 1171	4.15926	1.89126	1.76673	5.7183	57.27	-0.271	0.0247	0.2957	777.5164	0.124491	-341.841438	-341.833463	-341.832519	-341.873087	28.987
C          0.13440        1.57260       -0.03380
C          0.01340        0.03720       -0.02670
O          0.63580       -0.50830        1.11800
C         -1.47430       -0.42640       -0.05860
N         -2.05840       -0.18750        1.26250
C          0.69150       -0.51020       -1.21970
N          1.18650       -0.91880       -2.18000
H          1.18540        1.85860        0.04020
H         -0.28850        2.00600       -0.94520
H         -0.39100        1.98050        0.83500
H         -0.07610       -0.51350        1.78190
H         -2.00080        0.06710       -0.88580
H         -1.48550       -1.50260       -0.24790
H         -2.46450        0.73850        1.33250
H         -2.79300       -0.85500        1.46170
