18
gdb 6443	3.6357	1.42757	1.23346	1.1517	74.18	-0.2543	0.0331	0.2874	1048.5919	0.151421	-347.762193	-347.753514	-347.75257	-347.794927	33.009
C          0.08480        1.62570        0.02200
C          0.07660        0.10560        0.01110
C          1.10540       -0.64010       -0.88310
C          1.29830       -1.68970        0.24700
O          2.66060       -2.01850        0.44800
C          0.65680       -0.65560        1.23520
C          0.48100       -2.88850        0.08170
C         -0.17520       -3.89170       -0.01930
H          1.08780        2.01200        0.23650
H         -0.22870        2.03190       -0.94630
H         -0.59540        2.02200        0.78400
H         -0.93210       -0.26140       -0.20470
H          0.78930       -1.00600       -1.86120
H          2.03440       -0.07160       -0.98600
H          2.70140       -2.77310        1.04550
H          1.46110       -0.09050        1.71590
H         -0.03330       -1.03450        1.99160
H         -0.75570       -4.77500       -0.12250
