19
gdb 2934	5.91402	1.71946	1.42661	0.158	72.92	-0.2336	0.0293	0.263	906.4304	0.172837	-273.804223	-273.79686	-273.795915	-273.835715	27.585
C         -0.01800        1.57250        0.13830
C          0.00180        0.04600        0.01470
C          0.66660       -0.47360       -1.27060
C          0.79750       -2.02180       -1.31230
C          0.57300       -2.43400       -2.78880
C         -0.14060       -1.23410       -3.36570
C         -0.08490       -0.18010       -2.55370
H          0.99690        1.98480        0.10670
H         -0.58850        2.03780       -0.67230
H         -0.47430        1.88650        1.08230
H          0.53440       -0.37710        0.87660
H         -1.02300       -0.34500        0.06580
H          1.66600       -0.01210       -1.33220
H          1.75180       -2.37340       -0.91090
H          0.00680       -2.45760       -0.69070
H          1.52300       -2.60730       -3.31470
H         -0.00090       -3.36300       -2.88490
H         -0.60110       -1.24360       -4.34800
H         -0.49220        0.79930       -2.78060
