11
gdb 3956	7.9989	2.04825	1.65318	0.737	47.37	-0.2859	-0.034	0.2519	683.7226	0.079215	-376.564691	-376.5586	-376.557655	-376.595223	20.626
O          0.09300        1.35890       -0.35820
C          0.03670        0.05310        0.15120
C         -1.34240       -0.51910        0.04010
N         -2.30910       -0.03930       -0.68430
C         -3.30830       -0.95480       -0.45470
N         -2.99470       -1.93180        0.34780
O         -1.65960       -1.64000        0.68730
H         -0.61500        1.44650       -1.00920
H          0.73100       -0.62740       -0.37090
H          0.34160        0.06720        1.20440
H         -4.29170       -0.88760       -0.89660
