19
gdb 8556	2.83157	2.63003	1.66956	1.9698	75.09	-0.215	0.0789	0.2939	847.4804	0.165721	-327.859178	-327.851687	-327.850743	-327.890297	29.543
C         -0.03940        1.48370        0.04060
C          0.06080       -0.01110       -0.02660
C          0.02460       -0.89630       -1.26370
N         -0.28280       -2.08860       -0.38220
C          1.01490       -2.21720        0.38780
C          0.72090       -0.89110        1.07360
C          1.33400       -0.34690        2.32940
C         -0.72690       -1.07350        0.69630
H          0.87480        1.96200       -0.33090
H         -0.87440        1.84620       -0.56990
H         -0.20390        1.83860        1.06270
H         -0.83950       -0.68140       -1.90040
H          0.92020       -1.00780       -1.88780
H          0.94650       -3.06380        1.07830
H          1.90910       -2.32730       -0.23840
H          2.37160       -0.03330        2.16340
H          0.78580        0.51970        2.71170
H          1.33990       -1.10540        3.12070
H         -1.66140       -1.09360        1.24090
