22
gdb 9416	2.70523	1.22327	0.89713	2.2701	75.62	-0.2585	0.0732	0.3317	1350.0523	0.19776	-387.339731	-387.329286	-387.328342	-387.376496	36.683
C          0.01120        1.59040        0.12310
C         -0.04780        0.06170        0.09660
C         -1.47010       -0.49840        0.02960
C         -1.48230       -2.01460       -0.17900
O         -2.11920       -0.14120        1.24960
C         -3.53430       -0.13280        1.21410
C         -4.00260        0.42080        2.55180
O         -3.49700        1.71990        2.78440
H          1.04350        1.94410        0.20270
H         -0.41820        2.01890       -0.78930
H         -0.54870        1.99070        0.97240
H          0.51130       -0.31780       -0.76690
H          0.43670       -0.35150        0.99010
H         -2.00390       -0.01470       -0.80650
H         -2.50150       -2.41020       -0.20750
H         -0.99940       -2.27460       -1.12630
H         -0.94400       -2.51410        0.63290
H         -3.88920        0.51210        0.39430
H         -3.94650       -1.14210        1.06030
H         -5.09540        0.49090        2.55870
H         -3.70420       -0.27640        3.35120
H         -2.54800        1.65850        2.62500
