14
gdb 15307	4.62099	1.10358	0.96632	2.8328	65.38	-0.2536	-0.0305	0.223	1148.2757	0.10374	-382.486223	-382.478024	-382.47708	-382.519932	28.481
O         -0.53170        0.27760        0.07700
C          0.03320        1.33990        0.09390
C          1.42460        1.58020       -0.46470
C          1.45620        2.78230       -1.38140
O          1.24070        4.05720       -0.77790
C          2.53790        3.79460       -1.34110
C          3.64940        3.69540       -0.43510
C          4.59850        3.62090        0.29900
H         -0.43790        2.24170        0.54240
H          2.09970        1.76330        0.38080
H          1.75650        0.67930       -0.98890
H          0.94650        2.65560       -2.33800
H          2.73790        4.34910       -2.25720
H          5.43460        3.56060        0.95170
