22
gdb 17966	2.43417	2.20565	1.35219	0.2915	83.	-0.2339	0.0253	0.2592	1001.1092	0.203538	-313.085473	-313.077743	-313.076799	-313.117008	31.111
C         -0.03540        1.46100       -0.07330
C          1.34410        2.15560        0.02660
C          1.77020        2.63990        1.42370
C          1.71630        1.57690        2.54570
C          2.41020        0.29630        2.17490
C          1.81450       -0.73310        1.57110
C          0.35060       -0.80710        1.20570
C         -0.03420       -0.08080       -0.10360
H         -0.69140        1.80970        0.73660
H         -0.51940        1.79130       -1.00000
H          2.11100        1.48350       -0.37420
H          1.34550        3.03420       -0.62930
H          2.79070        3.03740        1.35040
H          1.13590        3.48330        1.72610
H          2.16200        2.00360        3.45170
H          0.66690        1.37390        2.78700
H          3.48070        0.24590        2.36540
H          2.41970       -1.59360        1.29220
H          0.06700       -1.86080        1.10460
H         -0.26710       -0.40570        2.01940
H         -1.04360       -0.41050       -0.38160
H          0.62890       -0.41980       -0.91060
