9
gdb 8961	5.48356	0.93676	0.80008	4.859	76.32	-0.2929	-0.1281	0.1648	1266.595	0.04653	-359.013946	-359.006366	-359.005422	-359.046608	25.527
O          0.05570       -0.08030        0.00290
C         -0.02280        1.12710        0.00670
C          1.18660        1.96900        0.00090
N          2.13970        2.62370       -0.00370
C         -1.24980        1.86680        0.01710
C         -2.29680        2.48020        0.02590
C         -3.46360        3.16880        0.03570
C         -4.50400        3.78190        0.04440
H         -5.41870        4.32360        0.05210
