15
gdb 9193	8.13877	0.82926	0.7632	4.2666	62.69	-0.2902	-0.0036	0.2866	1402.2174	0.117212	-399.851746	-399.842757	-399.841813	-399.887265	29.398
C         -0.05890        1.35950        0.08890
O          0.02630       -0.06860       -0.03330
C          0.64870       -0.51780       -1.13480
O          1.11850        0.19350       -1.98760
C          0.67640       -2.03380       -1.15380
C          1.39090       -2.55610       -2.40980
C          1.42890       -4.01550       -2.45050
N          1.45170       -5.17050       -2.46990
H          0.93970        1.80220        0.11670
H         -0.60990        1.78420       -0.75350
H         -0.58620        1.54440        1.02430
H          1.16990       -2.38870       -0.24350
H         -0.35200       -2.40540       -1.10270
H          0.89040       -2.18350       -3.30870
H          2.41320       -2.16790       -2.44900
