11
gdb 4954	3.26963	2.61329	1.45242	4.9029	55.69	-0.2495	-0.0651	0.1844	763.889	0.072573	-434.560574	-434.554294	-434.55335	-434.591514	22.835
N         -0.02680        1.20850        0.43890
C          0.00750        0.02080        0.02060
O          1.17300       -0.57710       -0.39060
C          1.13410       -1.87210       -0.83460
C          0.01270       -2.57600       -0.88390
O         -1.20160       -2.06490       -0.49380
C         -1.28540       -0.78120       -0.03170
O         -2.33900       -0.34040        0.30470
H          0.90780        1.62220        0.41910
H          2.10170       -2.24550       -1.13350
H         -0.05120       -3.59690       -1.22830
