17
gdb 10977	2.78876	2.38821	1.96178	0.5233	68.03	-0.231	-0.0024	0.2286	787.5089	0.143009	-363.81356	-363.80661	-363.805666	-363.844123	28.204
C         -0.01020        1.52020        0.01130
C         -0.05020        0.01460        0.02090
N          0.41090       -0.75710       -1.21160
C         -0.32100       -1.89960       -0.53070
C          0.54710       -2.04290        0.72220
C          0.72770       -0.77040        1.08980
C         -1.37850       -0.84540       -0.03580
O         -2.18610       -1.04990        1.07640
H          1.01620        1.88470       -0.09980
H         -0.60610        1.92720       -0.81220
H         -0.41710        1.92010        0.94580
H         -0.17040       -0.44600       -1.99760
H         -0.56850       -2.78260       -1.11830
H          0.91450       -2.96040        1.15810
H          1.28670       -0.34700        1.91240
H         -2.03730       -0.51330       -0.84500
H         -1.60240       -1.34890        1.78770
