14
gdb 11823	3.9233	1.67808	1.32735	2.6887	59.08	-0.2503	-0.051	0.1993	896.4824	0.104982	-419.644619	-419.636938	-419.635994	-419.677109	27.267
O          0.52790        0.92410        0.68510
C         -0.04350       -0.17920        0.03710
C         -1.58620       -0.14550       -0.19780
C         -1.34660       -0.55370       -1.66350
C         -1.94460       -1.63930       -2.45960
O         -2.15900       -0.26610       -2.77720
C          0.12630       -0.21750       -1.50050
O          1.02750        0.10940       -2.21750
H          1.30220        1.18580        0.17160
H          0.26910       -1.12990        0.49580
H         -2.19260       -0.81490        0.41240
H         -1.96070        0.87800       -0.12270
H         -1.32850       -2.19300       -3.16590
H         -2.80440       -2.16950       -2.05240
