20
gdb 6567	2.81646	2.03696	1.49473	1.7713	75.82	-0.2258	0.089	0.3148	954.0115	0.174785	-348.960611	-348.95197	-348.951026	-348.992915	33.169
C         -0.18240        1.65800       -0.01390
C          0.01760        0.15100        0.01540
C          1.19790       -0.57490       -0.70140
C          1.42800       -0.81340       -2.16120
C          2.18100       -0.07160        0.38700
C          0.89120       -0.58100        1.08080
C          0.62020       -0.82940        2.53190
O          0.92350       -1.75330        0.16480
H          0.74100        2.22040        0.14730
H         -0.59660        1.97120       -0.97870
H         -0.89610        1.96520        0.75870
H         -0.92350       -0.38380       -0.14840
H          1.60940        0.13490       -2.67740
H          2.29700       -1.46080       -2.31440
H          0.55440       -1.29230       -2.61430
H          3.05520       -0.70830        0.53530
H          2.42720        0.99150        0.43300
H          0.61700        0.11530        3.08520
H         -0.35400       -1.31060        2.66350
H          1.38880       -1.47850        2.96260
