20
gdb 19307	6.66967	0.87614	0.87081	1.6262	76.5	-0.2296	0.0863	0.3159	1387.945	0.177235	-345.113538	-345.105206	-345.104262	-345.147134	30.554
C         -0.09660        1.51800        0.23480
C          0.08460        0.00100        0.22470
N         -1.21160       -0.66510        0.26300
C         -1.82180       -0.97030       -1.02790
C         -1.23820       -2.05100       -0.18670
N          1.20020        2.18380        0.25490
C          1.78500        2.50320       -1.04430
C          1.21820        3.57460       -0.18000
H         -0.70980        1.82420       -0.63330
H         -0.64870        1.80490        1.13620
H          0.68070       -0.29560       -0.65860
H          0.65430       -0.29570        1.11200
H         -2.89780       -0.83580       -1.08990
H         -1.27470       -0.69480       -1.92890
H         -0.30390       -2.49450       -0.52810
H         -1.87980       -2.72070        0.37900
H          2.85960        2.36950       -1.12890
H          1.22030        2.23750       -1.93730
H          0.27740        4.02170       -0.49820
H          1.87080        4.23810        0.38030
