14
gdb 4263	4.01161	1.85163	1.27698	7.8231	66.92	-0.2277	-0.021	0.2067	900.7779	0.10907	-378.787302	-378.780346	-378.779402	-378.818559	25.692
C         -0.02440        1.52780        0.06190
C          0.00110        0.03310       -0.03910
C         -0.02750       -0.68260       -1.18350
C          0.00120       -2.15040       -1.17910
O         -0.02360       -2.81480       -2.19530
N          0.06070       -2.77390        0.09780
C          0.08520       -2.03480        1.14490
N          0.05890       -0.66650        1.15230
H          0.87140        1.90490        0.56940
H         -0.06860        1.97480       -0.93190
H         -0.89590        1.87040        0.63230
H         -0.07280       -0.18420       -2.14380
H          0.13070       -2.48990        2.13430
H          0.08180       -0.17120        2.02960
