18
gdb 13538	2.88987	1.65779	1.17681	4.1354	72.44	-0.2397	0.0305	0.2702	1047.0084	0.152856	-343.968194	-343.959381	-343.958437	-344.001677	31.616
C         -1.78840       -2.09810        0.76600
C         -0.44620       -1.66900        0.13900
C         -0.63040       -0.48210       -0.70770
N         -0.77970        0.45400       -1.36910
C          0.59670       -1.39720        1.22360
C          1.47610       -2.50420        1.70060
N          2.03200       -1.36700        0.98110
C          2.56470       -1.58250       -0.35700
H         -2.16870       -1.32020        1.43390
H         -2.53970       -2.28280       -0.00530
H         -1.64570       -3.01320        1.34630
H         -0.09350       -2.47520       -0.51270
H          0.26580       -0.64610        1.94020
H          1.74570       -2.59450        2.74960
H          1.39870       -3.45400        1.16930
H          2.08700       -2.40300       -0.91600
H          2.46340       -0.66250       -0.93960
H          3.62960       -1.81800       -0.27020
