16
gdb 6676	4.72354	0.97616	0.85159	2.0381	62.35	-0.248	0.0255	0.2734	1287.8394	0.129928	-417.120882	-417.111618	-417.110673	-417.156457	31.25
N         -0.09170        1.09970       -0.58540
C         -0.11230        0.06290        0.30000
O          0.69680       -0.04250        1.20340
C         -1.25210       -0.93330        0.10300
C         -0.81690       -2.34460        0.51800
N         -1.92010       -3.29460        0.54690
C         -2.49370       -3.77280       -0.58490
O         -2.17800       -3.44360       -1.71100
H          0.65970        1.76700       -0.51820
H         -0.68420        1.11940       -1.39650
H         -2.08840       -0.60800        0.73460
H         -1.61120       -0.94730       -0.92930
H         -0.06080       -2.71130       -0.18320
H         -0.36050       -2.30210        1.50760
H         -2.25720       -3.62930        1.43450
H         -3.29390       -4.50940       -0.37040
