18
gdb 12789	2.99838	1.87258	1.44582	2.465	67.55	-0.2347	0.065	0.2997	920.7484	0.153198	-384.898905	-384.890802	-384.889858	-384.931207	30.824
O          0.22590        0.38160        1.00240
C         -0.14930        0.32380       -0.37380
C         -1.49000       -0.38130       -0.41550
C         -2.07920       -0.93000       -1.75970
C         -2.19330       -2.32330       -1.11960
C         -0.80930       -2.79040       -0.71960
C         -1.54280       -1.80320        0.15020
O         -1.88220       -2.07960        1.46120
H          1.10060        0.77610        1.06450
H         -0.22320        1.33250       -0.81000
H          0.59660       -0.23520       -0.95960
H         -2.23450        0.23260        0.10040
H         -3.03630       -0.47270       -2.01690
H         -1.41860       -0.87460       -2.63250
H         -3.01860       -3.01270       -1.24550
H         -0.77580       -3.78600       -0.28920
H          0.06060       -2.52610       -1.31850
H         -1.16710       -1.72880        2.00630
