21
gdb 15831	4.53797	0.94336	0.83329	1.6892	75.33	-0.2451	0.0718	0.3169	1430.5624	0.187774	-366.237218	-366.227606	-366.226662	-366.272165	34.474
C         -0.40910        1.44150        0.21480
C          0.06550        0.00490       -0.01630
C          0.76880       -0.59900        1.20320
C          1.30830       -2.01400        0.95950
O          2.22470       -2.05320       -0.13630
C          1.92270       -2.60660        2.21080
C          1.15960       -3.57690        3.03590
N          2.31080       -4.02220        2.23520
H          0.43130        2.10420        0.45080
H         -0.90850        1.84290       -0.67250
H         -1.11700        1.49910        1.04950
H         -0.79210       -0.62650       -0.28460
H          0.74960       -0.03470       -0.87040
H          1.60690        0.04780        1.50500
H          0.08320       -0.62730        2.06060
H          0.48220       -2.66270        0.63640
H          3.02340       -1.58450        0.13210
H          2.63760       -1.95400        2.71450
H          1.30540       -3.61510        4.11170
H          0.15690       -3.84080        2.70740
H          1.99480       -4.46960        1.37710
