22
gdb 5893	4.09996	0.98436	0.96461	2.1838	75.79	-0.2544	0.0785	0.333	1366.5572	0.19685	-387.347303	-387.336872	-387.335927	-387.382548	37.738
C         -0.08790        1.48180       -0.21230
C         -0.02100       -0.02630       -0.04310
O         -1.33970       -0.53350        0.02850
C         -1.40990       -1.94080        0.16560
C         -2.89050       -2.33930        0.07340
C         -3.02280       -3.85920       -0.00240
C         -3.68060       -1.76950        1.26260
O         -3.41400       -1.82590       -1.15130
H          0.92010        1.90310       -0.26900
H         -0.62400        1.74300       -1.12930
H         -0.60910        1.94090        0.63250
H          0.51530       -0.48970       -0.88780
H          0.53250       -0.28940        0.87330
H         -0.84750       -2.42800       -0.64660
H         -0.97290       -2.26010        1.12560
H         -2.62330       -4.33670        0.89760
H         -4.07640       -4.13550       -0.09980
H         -2.48910       -4.24630       -0.87500
H         -3.54220       -0.68700        1.32770
H         -4.74560       -1.97870        1.13140
H         -3.35260       -2.21230        2.20950
H         -3.09250       -0.91740       -1.20970
