22
gdb 9954	2.83676	1.43784	1.28646	1.2406	78.82	-0.2525	0.0755	0.328	1112.126	0.198007	-350.195823	-350.18561	-350.184666	-350.230253	37.121
C         -0.26340        1.00170       -1.76290
C         -0.06120       -0.17570       -0.83310
C          1.30180       -0.63020       -0.34420
C          2.59550        0.05990       -0.72410
C          0.30260       -0.03630        0.63460
C          0.53260        1.32480        1.26590
C         -0.36470       -1.01430        1.57660
O         -1.66420       -0.52510        1.89490
H          0.45410        1.80810       -1.59480
H         -0.16150        0.69010       -2.80870
H         -1.26630        1.42520       -1.63990
H         -0.75790       -0.98610       -1.03700
H          1.41650       -1.71060       -0.27170
H          2.48820        1.14240       -0.82070
H          3.37290       -0.12520        0.02590
H          2.96770       -0.31780       -1.68310
H          0.92960        2.06140        0.56580
H         -0.40930        1.71130        1.66500
H          1.24140        1.24910        2.09990
H         -0.42630       -2.00570        1.09990
H          0.24380       -1.12580        2.48990
H         -2.02660       -1.07270        2.59720
