17
gdb 20003	3.9897	1.32105	1.09233	3.9547	71.28	-0.2363	-0.0115	0.2248	1087.0794	0.14129	-363.822798	-363.814975	-363.814031	-363.855586	28.593
O         -0.05050        0.00350       -0.36270
C          0.02450        1.13340        0.05740
C          1.27210        1.93400        0.05120
C          1.16340        3.44420       -0.15930
C          1.55460        2.92260        1.17810
N          0.59760        3.02760        2.24200
C          1.00480        2.49910        3.54170
C          0.92170        3.96810        3.31180
H         -0.85900        1.65740        0.47830
H          2.12480        1.42170       -0.38020
H          1.90890        3.91490       -0.78920
H          0.16040        3.84780       -0.24710
H          2.60890        3.00430        1.45870
H          0.23170        1.98200        4.10200
H          1.99840        2.06250        3.62420
H          1.86000        4.51550        3.23960
H          0.08710        4.54350        3.70130
