15
gdb 19899	4.06192	1.9967	1.71562	4.4672	65.26	-0.2186	0.0103	0.2289	777.6193	0.11887	-362.573095	-362.566709	-362.565765	-362.603616	25.13
O         -0.16820        0.17580        0.46470
C         -0.06800        1.21890       -0.13250
C          1.17090        2.08340       -0.06280
C          1.24410        3.58030       -0.19990
C          0.07400        4.29650        0.53490
N         -0.80880        3.24890        1.09130
C          0.43150        3.63240        1.80540
C          1.61710        2.90210        1.12200
H         -0.82730        1.54980       -0.86990
H          2.01540        1.58650       -0.53910
H          1.89420        4.08040       -0.90550
H         -0.28850        5.29550        0.33350
H         -1.60500        3.68880        1.54930
H          0.40290        3.98870        2.82600
H          2.59330        2.79590        1.57580
