16
gdb 20287	4.07875	3.01573	2.78113	0.0193	68.51	-0.2414	0.0835	0.3249	610.9598	0.134143	-309.406376	-309.401725	-309.400781	-309.434667	21.402
C          0.02140        1.47840        0.06160
C         -0.24720        1.88400        1.50680
C          0.89190        1.41560        2.38590
C         -0.42160        0.64520        2.35810
C          0.20430       -0.43500        1.43710
C          0.02580       -0.03060       -0.05000
C          1.33930        0.73970       -0.02220
C          1.55820        0.35900        1.46580
H         -0.31550        2.08280       -0.77060
H         -0.78430        2.79090        1.75250
H          1.34360        2.00450        3.17520
H         -1.18050        0.52410        3.12180
H          0.16660       -1.48300        1.72420
H         -0.44260       -0.59070       -0.85040
H          2.08160        0.88960       -0.79690
H          2.48180       -0.12520        1.77330
