16
gdb 2835	5.02496	1.76969	1.45149	0.8597	67.95	-0.2287	0.0347	0.2634	865.3855	0.135106	-288.576381	-288.568685	-288.567741	-288.608094	28.131
C         -0.12300        1.56930       -0.27740
C         -0.00610        0.15190        0.27550
N         -1.29890       -0.52750        0.18860
C         -1.58420       -1.25320       -1.03560
C         -1.32180       -2.00080        0.23980
C         -0.12120       -2.77800        0.38790
C          0.86670       -3.44450        0.55370
H          0.82940        2.09880       -0.17850
H         -0.39280        1.55570       -1.33870
H         -0.89230        2.13170        0.25910
H          0.78830       -0.39880       -0.25230
H          0.27750        0.18070        1.33360
H         -2.59960       -1.18180       -1.41630
H         -0.80630       -1.30830       -1.79570
H         -2.17730       -2.39420        0.78470
H          1.73940       -4.03400        0.68940
