11
gdb 1203	8.52608	1.08388	1.00273	2.9665	59.6	-0.2792	-0.0833	0.1958	1080.1312	0.075004	-343.243883	-343.236061	-343.235116	-343.277095	24.682
C          0.16610        1.48820       -0.00960
C         -0.24020        0.03370        0.03910
O         -0.62820       -0.52900        1.03770
C         -0.13700       -0.68870       -1.22280
C         -0.04580       -1.30270       -2.26180
C          0.02750       -2.03250       -3.50580
O          1.03870       -2.53440       -3.93460
H          1.20920        1.57510       -0.33250
H         -0.44320        2.02600       -0.74410
H          0.04120        1.93220        0.97890
H         -0.93710       -2.09500       -4.04750
