14
gdb 4204	5.35329	1.68876	1.51456	1.3376	64.76	-0.2333	0.0107	0.244	821.6884	0.107914	-378.597348	-378.591085	-378.590141	-378.627638	24.508
O         -0.18730        1.33000       -0.06210
N         -0.02780       -0.07370       -0.09250
C         -1.14850       -0.65780       -0.03560
C         -1.49710       -2.09420        0.10450
C         -2.75220       -1.71180        0.82730
C         -2.61180       -0.27940        0.15640
C         -3.24980       -0.95600       -1.07370
N         -2.86160       -2.30440       -0.51870
H          0.72590        1.63350       -0.09800
H         -0.86220       -2.96130        0.20940
H         -3.20650       -2.08900        1.73330
H         -2.89870        0.69350        0.54230
H         -4.34070       -0.90130       -1.08780
H         -2.84260       -0.71860       -2.06190
