20
gdb 15598	2.9299	1.73655	1.2112	2.8983	74.92	-0.2434	-0.0178	0.2256	1036.2677	0.177493	-349.035165	-349.026806	-349.025862	-349.06872	30.891
C         -0.42040        1.46480       -0.01440
C          0.02710        0.00180       -0.04500
C          1.04020       -0.34910       -1.14910
C          1.58560       -1.71440       -0.71480
C          1.76950       -1.56010        0.80890
C          0.68230       -0.54620        1.27830
C          1.30200        0.54930        2.11650
O          0.89680        0.91480        3.19010
H          0.42850        2.14870        0.09390
H         -0.93530        1.72710       -0.94420
H         -1.10780        1.65690        0.81530
H         -0.86400       -0.61630       -0.21330
H          0.58540       -0.35640       -2.14450
H          1.84960        0.39350       -1.16750
H          0.84470       -2.49390       -0.92970
H          2.51120       -1.99810       -1.22340
H          1.70200       -2.50780        1.34830
H          2.76750       -1.15270        1.01650
H         -0.08040       -1.01680        1.90340
H          2.20950        1.01780        1.66330
