14
gdb 17142	4.24691	1.98368	1.59438	1.8023	68.62	-0.2385	0.0296	0.268	795.4253	0.106243	-345.27111	-345.264794	-345.26385	-345.301354	25.175
C          0.01120       -1.16040        0.00520
C         -0.02070        0.04210        0.03180
C         -0.06700        1.46900        0.07600
C         -0.77370        2.40460        1.09040
C         -0.11670        3.40200        0.11680
C          1.12610        2.48740       -0.10770
O          1.04290        2.51720       -1.55830
C         -0.34000        2.47100       -1.11390
H          0.04360       -2.22140       -0.02480
H         -1.86590        2.36720        1.09460
H         -0.38450        2.38380        2.11130
H         -0.12570        4.49010        0.11210
H          2.10630        2.48830        0.36800
H         -1.13620        2.45200       -1.85740
