11
gdb 4213	5.90361	2.70366	1.85441	2.9725	53.92	-0.2597	-0.0319	0.2278	613.1003	0.080753	-347.466594	-347.461636	-347.460692	-347.495316	18.863
F         -0.00200        0.04620        0.00370
C         -0.01500        1.37700        0.01070
N         -1.19840        1.94440        0.02920
C         -1.22510        3.28360        0.03630
C         -0.08230        4.07290        0.02520
C          1.15840        3.43520        0.00550
C          1.20560        2.04850       -0.00210
H         -2.21240        3.73750        0.05170
H         -0.16160        5.15330        0.03170
H          2.07770        4.01090       -0.00370
H          2.13500        1.49330       -0.01720
