22
gdb 5996	3.06769	1.15761	1.06297	2.0566	74.5	-0.2467	0.0756	0.3223	1252.1016	0.196928	-387.331269	-387.320674	-387.31973	-387.366629	38.078
C         -0.05750        1.33940       -0.13320
O          0.06840       -0.05630        0.01220
C          0.74250       -0.55410        1.18030
C          2.16990        0.01090        1.29230
C         -0.05980       -0.22680        2.45050
C          0.75740       -2.08040        0.97170
C          1.49620       -2.56680       -0.27820
O          1.41360       -3.97880       -0.42590
H          0.91330        1.84680       -0.22180
H         -0.61450        1.50370       -1.05960
H         -0.61740        1.80560        0.68970
H          2.16590        1.06440        1.58650
H          2.73350       -0.53790        2.05280
H          2.70440       -0.07410        0.34230
H         -1.08690       -0.59180        2.35670
H          0.39750       -0.70370        3.32290
H         -0.09200        0.84890        2.64640
H          1.19310       -2.56260        1.85380
H         -0.28730       -2.41320        0.90700
H          1.11160       -2.04260       -1.16260
H          2.56630       -2.34930       -0.20560
H          0.48800       -4.20150       -0.56750
