17
gdb 5304	4.42948	1.39518	1.38046	2.1004	69.81	-0.2352	0.0077	0.2429	985.0918	0.142912	-363.90563	-363.897853	-363.896909	-363.938086	28.361
C          0.00840        1.55420        0.02600
C          0.04490        0.01410       -0.00500
C          0.76610       -0.50150       -1.26530
C          0.65220       -0.54370        1.23920
C          0.22010       -1.33570        2.25130
N          1.24790       -1.53460        3.16900
C          2.23500       -0.86510        2.67650
O          1.96500       -0.23300        1.50970
H          1.02210        1.96400        0.07060
H         -0.47570        1.94310       -0.87510
H         -0.54270        1.91930        0.89740
H         -0.98780       -0.35480       -0.02370
H          1.81210       -0.17970       -1.27080
H          0.74820       -1.59410       -1.31200
H          0.28560       -0.11040       -2.16740
H         -0.75430       -1.77770        2.38790
H          3.23200       -0.74790        3.07120
