17
gdb 6731	5.5713	0.80962	0.72747	3.1693	74.	-0.2386	0.0297	0.2682	1551.4232	0.139901	-363.876143	-363.86615	-363.865205	-363.914812	33.42
C          0.53820        1.08350        0.43680
C         -0.48920        0.39210       -0.47830
C          0.13030       -0.29930       -1.60380
C          0.67740       -0.86530       -2.51370
C          1.32170       -1.55210       -3.62010
C          2.52570       -2.42010       -3.19770
N          2.88990       -3.33680       -4.14610
O          3.12810       -2.27590       -2.15860
H          1.24580        0.35560        0.84180
H          1.10890        1.83300       -0.11800
H          0.03310        1.58030        1.27070
H         -1.07920       -0.32350        0.10880
H         -1.20510        1.13470       -0.85410
H          0.59640       -2.17340       -4.16250
H          1.69880       -0.82640       -4.35480
H          2.30290       -3.55700       -4.93150
H          3.64040       -3.96890       -3.91970
