19
gdb 1341	4.9025	1.71312	1.55301	0.965	68.75	-0.2406	0.0932	0.3339	897.6244	0.169391	-310.901659	-310.893126	-310.892182	-310.933912	31.118
C          0.05990        1.21600       -0.41310
O         -0.13540        0.16240        0.50710
C         -1.34750       -0.49870        0.32760
C         -1.46260       -1.56610       -0.74000
C         -1.42950       -1.94200        0.73460
C         -0.17950       -2.61430        1.26810
C         -2.72340       -2.41410        1.37020
H          1.03260        1.66200       -0.19180
H          0.05500        0.85500       -1.45170
H         -0.71670        1.98990       -0.31370
H         -2.22250        0.13030        0.50800
H         -2.39390       -1.66350       -1.28870
H         -0.56880       -1.76880       -1.32120
H          0.72170       -2.18800        0.82420
H         -0.10450       -2.48970        2.35460
H         -0.19880       -3.68960        1.05660
H         -2.87890       -3.48440        1.19010
H         -2.70970       -2.25720        2.45520
H         -3.59030       -1.88150        0.96600
