11
gdb 215	6.06065	5.83683	2.97332	2.1103	53.03	-0.2518	-0.0225	0.2293	432.2254	0.088683	-248.211932	-248.207665	-248.206721	-248.239325	16.093
C         -0.02940        1.38970        0.01040
C          1.18390        2.07000        0.00220
C          2.36040        1.32570       -0.01370
N          2.39360       -0.01000       -0.02160
C          1.22010       -0.64860       -0.01350
C         -0.01250       -0.00130        0.00240
H         -0.96900        1.93240        0.02280
H          1.22180        3.15370        0.00800
H          3.32590        1.82610       -0.02040
H          1.26890       -1.73490       -0.02020
H         -0.93230       -0.57550        0.00830
