17
gdb 14608	12.96436	0.6125	0.5913	3.345	73.94	-0.2633	0.0195	0.2827	1789.1568	0.139747	-363.824694	-363.815188	-363.814244	-363.860893	31.893
N         -0.07790        1.30610        0.00980
C         -0.03550        0.04490        0.00290
O         -1.17710       -0.66890        0.00940
C         -1.03400       -2.08920        0.00050
C         -2.42880       -2.69580        0.01060
C         -2.37960       -4.23610        0.00190
C         -3.70570       -4.84060        0.01130
C         -4.80860       -5.31740        0.01930
H          0.86680        1.68490        0.00330
H          0.87170       -0.57620       -0.00850
H         -0.47990       -2.40530       -0.89520
H         -0.46290       -2.41480        0.88200
H         -2.96700       -2.34630        0.89680
H         -2.98380       -2.33690       -0.86140
H         -1.82820       -4.58300       -0.88240
H         -1.81150       -4.59240        0.87170
H         -5.77920       -5.74770        0.02630
