17
gdb 15417	4.96278	0.98389	0.92689	2.5521	67.79	-0.2508	-0.0381	0.2127	1247.6584	0.140794	-400.965608	-400.957192	-400.956248	-400.999224	29.995
O          0.35260        1.26970       -0.36260
C          0.16860       -0.08980       -0.03760
C         -1.29820       -0.39810        0.26670
N         -2.08330       -0.01670       -0.91380
C         -2.56160       -1.04260       -1.80550
C         -3.53320       -0.23840       -0.97980
C         -4.27220       -0.94360        0.10130
O         -5.42080       -0.70680        0.38160
H         -0.35590        1.48340       -0.98400
H          0.51650       -0.75230       -0.84890
H          0.78080       -0.30290        0.84500
H         -1.40930       -1.45670        0.54520
H         -1.62920        0.21960        1.10830
H         -2.49400       -0.84470       -2.87150
H         -2.40950       -2.08340       -1.51840
H         -4.09980        0.56090       -1.45020
H         -3.69660       -1.72920        0.63840
