18
gdb 7787	3.25452	1.83122	1.23308	4.2369	68.87	-0.2344	0.0597	0.2941	984.0066	0.156577	-381.184301	-381.17648	-381.175536	-381.216444	29.573
C          0.00090        1.56760        0.00390
C          0.05300        0.04040       -0.01360
C          0.70100       -0.50920       -1.28650
C          0.85370       -2.02640       -1.18980
N          1.56150       -2.36030        0.03420
C          1.42130       -1.67970        1.22550
O          1.84890       -2.11620        2.28080
N          0.81990       -0.44130        1.12940
H          1.00850        1.98850       -0.07020
H         -0.59900        1.94180       -0.83120
H         -0.45390        1.93430        0.93060
H         -0.98280       -0.33880        0.03150
H          0.08930       -0.25050       -2.15580
H          1.68720       -0.04900       -1.41480
H         -0.14000       -2.50170       -1.23040
H          1.42460       -2.40620       -2.04380
H          1.90100       -3.29990        0.16240
H          0.64320       -0.02850        2.03220
