14
gdb 3396	4.91914	2.42132	2.20833	2.709	58.76	-0.259	0.0189	0.2779	653.6273	0.113668	-324.548021	-324.541788	-324.540844	-324.577947	23.514
C          0.00910        1.56010        0.04870
C          0.08810        0.05130        0.07080
C          1.33290       -0.73340       -0.14840
O          2.48230       -0.02150        0.38330
C          1.95510       -0.13850        1.67360
N          2.46000        0.15900        2.78040
C          0.68560       -0.77990        1.22110
H          0.94370        2.01050        0.38870
H         -0.18680        1.91650       -0.96800
H         -0.79940        1.91640        0.69410
H         -0.78680       -0.45580       -0.33430
H          1.53080       -1.50150       -0.88370
H          3.39370        0.55680        2.66510
H          0.14170       -1.55730        1.73700
