18
gdb 15992	3.36377	1.65871	1.26083	2.1493	68.73	-0.2536	0.067	0.3206	1004.0934	0.152539	-384.895259	-384.887153	-384.886209	-384.928021	29.657
C          0.17370        1.52580       -0.21490
O         -0.32800        0.23340       -0.47880
C          0.57640       -0.59210       -1.15330
C          1.70250       -1.32600       -0.35250
C          1.36250       -2.63110       -1.13520
C          0.03940       -1.96940       -1.52690
C         -1.32870       -2.45080       -1.34820
O         -0.75470       -2.26530       -2.65430
H          1.05090        1.49950        0.44860
H          0.45770        2.04610       -1.14270
H         -0.62240        2.08890        0.27760
H          0.99040       -0.08060       -2.03750
H          2.71900       -0.94040       -0.44100
H          1.42810       -1.40040        0.70260
H          2.01110       -2.77850       -2.00330
H          1.31150       -3.56260       -0.56850
H         -1.50120       -3.48690       -1.05910
H         -2.11020       -1.74360       -1.07990
