12
gdb 4729	6.61592	1.36743	1.13472	5.675	67.06	-0.2123	-0.036	0.1763	957.3647	0.086576	-373.752148	-373.745328	-373.744383	-373.783037	25.257
N          0.00310        1.39890        0.15470
C         -0.03150        0.01350        0.05110
C         -1.13140       -0.82890        0.02270
N         -0.60890       -2.09870       -0.01190
C          0.74800       -1.98100        0.00120
N          1.12350       -0.70910        0.03570
C          1.60020       -3.11210       -0.02590
N          2.26220       -4.06250       -0.05110
H          0.90990        1.76620       -0.10110
H         -0.73660        1.87440       -0.34240
H         -2.19190       -0.64460        0.03170
H         -1.12790       -2.96090       -0.04110
