19
gdb 8544	3.88047	2.23759	1.84491	1.6211	73.89	-0.2185	0.078	0.2964	802.1846	0.167382	-327.882546	-327.875881	-327.874937	-327.912779	27.427
C          0.01700        1.51260        0.02350
C          0.01940        0.00390        0.00980
C          0.47530       -0.72380       -1.27730
C         -0.71850       -1.67650       -1.08450
C         -0.50000       -2.77580       -0.02790
C         -0.76730       -1.69610        1.03760
C          0.41590       -0.74770        1.30270
N         -1.33210       -0.74470       -0.02830
H          1.04360        1.89870        0.04980
H         -0.47420        1.91140       -0.86990
H         -0.51350        1.89530        0.90150
H          0.34720       -0.08850       -2.15850
H          1.48120       -1.15450       -1.29910
H         -1.31480       -1.92670       -1.96450
H         -1.30110       -3.51930       -0.05330
H          0.46340       -3.29510       -0.01060
H         -1.40340       -1.96240        1.88440
H          1.42000       -1.17910        1.36290
H          0.24710       -0.12870        2.18870
