17
gdb 2804	3.96982	2.2858	1.66922	2.4748	60.55	-0.2471	0.078	0.3251	788.2389	0.147951	-346.829695	-346.822193	-346.821249	-346.861198	27.509
C          0.10700        1.22020        0.19840
O         -0.22040       -0.08510       -0.22250
C          0.57990       -0.57240       -1.28310
C          1.92100       -1.19240       -0.80250
C          1.19600       -2.55890       -0.64960
C          0.07890       -2.01310       -1.58910
O         -1.26470       -2.29320       -1.33480
H          1.13180        1.28230        0.59160
H          0.00810        1.94270       -0.62590
H         -0.59160        1.49020        0.99400
H          0.60920        0.16050       -2.10150
H          2.67060       -1.19670       -1.59860
H          2.36520       -0.75490        0.09420
H          1.72440       -3.46260       -0.96000
H          0.81010       -2.69890        0.36320
H          0.28410       -2.28070       -2.63040
H         -1.51570       -1.72240       -0.59660
