18
gdb 8228	5.16646	1.13026	1.06879	3.8714	69.14	-0.2258	0.0379	0.2637	1142.168	0.15447	-381.130566	-381.122251	-381.121307	-381.163964	30.209
N          0.41990        0.01380        0.81260
C         -0.15120        0.35920       -0.37090
O          0.15640        1.33730       -1.02300
C         -1.26930       -0.59320       -0.81730
N         -1.20700       -1.90080       -0.19880
C         -0.29950       -2.92430       -0.77160
C         -1.36810       -3.99900       -0.46110
C         -2.36060       -2.81770       -0.34210
H          1.10960        0.62070        1.22190
H          0.06480       -0.78710        1.30970
H         -2.21730       -0.11930       -0.53200
H         -1.24720       -0.62510       -1.91940
H         -0.14400       -2.79110       -1.85400
H          0.67720       -3.00010       -0.28420
H         -1.56760       -4.74100       -1.23400
H         -1.19600       -4.50320        0.49150
H         -3.06210       -2.80620        0.49840
H         -2.92240       -2.65670       -1.27540
