19
gdb 17353	4.37563	1.22575	1.05895	1.7503	72.9	-0.248	0.071	0.319	1169.0635	0.164447	-365.019944	-365.011241	-365.010297	-365.053804	31.66
C         -0.14760        1.60570       -0.07910
C         -0.00740        0.10500        0.00650
N          1.29630       -0.47820       -0.34360
C          0.79590       -0.61520        1.03840
C          1.59450        0.08730        2.08590
O          1.01410        0.17570        3.39520
C          2.21920       -0.58250        3.24120
C          2.15530       -2.06050        3.52990
H          0.77260        2.11180        0.21990
H         -0.37340        1.90850       -1.10710
H         -0.96130        1.95620        0.56430
H         -0.88910       -0.43980       -0.33080
H          1.18540       -1.35180       -0.85000
H          0.40460       -1.58340        1.34020
H          2.06480        1.00760        1.74010
H          3.09740       -0.08600        3.66130
H          1.25520       -2.51960        3.11630
H          3.03210       -2.56870        3.11410
H          2.15100       -2.23170        4.61150
