19
gdb 10303	2.6705	1.48335	1.19735	3.0451	71.54	-0.2818	0.028	0.3097	1109.2219	0.163679	-365.089448	-365.079822	-365.078877	-365.123724	34.38
C          0.05030        1.57530        0.00780
C         -0.00870        0.04800        0.05370
C         -1.43960       -0.52960       -0.02140
C         -2.11640       -0.10630       -1.25200
N         -2.63650        0.17640       -2.24570
C         -1.44080       -2.08690        0.04330
C         -2.84400       -2.67490        0.17930
O         -0.73620       -2.63910       -1.05460
H          1.08490        1.92220        0.08240
H         -0.36610        1.96260       -0.92720
H         -0.51170        2.02280        0.83510
H          0.57630       -0.38810       -0.76110
H          0.43480       -0.31560        0.98800
H         -2.02550       -0.14890        0.82570
H         -0.84670       -2.35850        0.92340
H         -3.47200       -2.39280       -0.67320
H         -2.78370       -3.76540        0.21720
H         -3.33580       -2.32210        1.09170
H         -1.25890       -2.48350       -1.85120
