9
gdb 4218	6.20197	2.83305	1.94471	2.2732	46.1	-0.2571	-0.0891	0.168	565.2671	0.056285	-379.522177	-379.517358	-379.516414	-379.550875	17.318
F          0.00130        0.05880        0.00380
C         -0.02270        1.37940        0.01040
C         -1.25020        2.05010        0.03040
N         -1.25850        3.37020        0.03730
C         -0.04660        3.94700        0.02410
N          1.12950        3.32970        0.00520
N          1.13540        1.99360       -0.00180
H         -2.19310        1.51010        0.04040
H         -0.01010        5.03140        0.02920
