16
gdb 673	5.54659	4.21741	3.10185	0.1741	59.15	-0.2611	0.0913	0.3524	507.8818	0.146218	-234.503085	-234.497918	-234.496974	-234.531247	20.793
C         -0.00520        1.50690        0.32860
C          1.28840        0.81750       -0.03480
C          2.15760        0.29990        1.10290
C          1.18050       -0.45140        2.03890
C          0.04800       -0.96480        1.11740
C         -0.01040        0.03890       -0.02590
H         -0.17850        1.80770        1.35740
H         -0.42120        2.19250       -0.40180
H          1.76840        1.09300       -0.96760
H          2.90450       -0.39300        0.69590
H          2.70580        1.09060        1.62720
H          1.66860       -1.25930        2.59050
H          0.77420        0.23480        2.78850
H          0.30310       -1.95250        0.71380
H         -0.90240       -1.07250        1.65200
H         -0.48900       -0.26020       -0.95220
