14
gdb 21242	3.44468	2.01391	1.3247	3.6547	60.09	-0.2137	0.0108	0.2245	879.2849	0.108514	-412.016264	-412.008543	-412.007599	-412.04878	27.135
C         -0.56000        0.83600        0.16770
O          0.78650        0.69370       -0.30870
C          0.98550       -0.32610       -1.16040
C          0.60590       -1.65500       -1.21400
N         -0.24340       -2.36550       -0.34320
N          1.16490       -2.20550       -2.32680
N          1.87450       -1.31170       -2.96030
N          1.77470       -0.16920       -2.25180
H         -0.52900        1.62260        0.92240
H         -1.22410        1.13290       -0.65170
H         -0.92420       -0.09890        0.60200
H          0.22210       -2.60010        0.52830
H         -0.51320       -3.23700       -0.78820
H          2.25740        0.66380       -2.54920
