16
gdb 15555	3.72598	1.80351	1.37846	1.2317	71.73	-0.2485	0.016	0.2645	901.1799	0.130052	-346.576939	-346.569377	-346.568433	-346.608582	29.064
O          0.08030        1.44990        0.26810
C          0.02950        0.04760        0.11820
C          0.61750       -0.56770        1.40520
C         -0.59960       -0.87310        2.24300
C         -1.72430       -0.82210        1.53590
C         -1.44830       -0.49310        0.07680
C         -2.37540        0.44460       -0.54350
C         -3.10510        1.24560       -1.06740
H         -0.56590        1.83560       -0.33710
H          0.57320       -0.26640       -0.78390
H          1.18870       -1.48060        1.18860
H          1.30660        0.14180        1.87350
H         -0.53750       -1.12870        3.29480
H         -2.72570       -1.01690        1.89940
H         -1.46290       -1.42260       -0.51310
H         -3.77300        1.93380       -1.52380
