13
gdb 18190	4.40881	1.88863	1.55453	3.6031	61.61	-0.2716	-0.0276	0.244	788.0647	0.097741	-357.628177	-357.621973	-357.621029	-357.658664	23.139
N         -0.05980       -1.18740       -0.13470
C         -0.04670       -0.03600       -0.04430
C          0.01120        1.42680        0.05180
N         -0.56880        1.90260        1.33320
C          0.30700        2.65360        1.86940
N          1.53840        2.89880        1.19430
C          2.35430        1.65090        1.13000
C          1.43850        2.00110        0.02210
H         -0.58010        1.83900       -0.77480
H          0.14730        3.14600        2.82400
H          3.42000        1.81730        1.01630
H          2.07340        0.83810        1.79390
H          1.82870        2.37850       -0.91560
