15
gdb 8170	3.01058	2.69311	1.82197	2.1344	61.88	-0.2638	0.0232	0.2871	742.8111	0.120503	-399.792779	-399.786514	-399.78557	-399.822793	25.542
O          0.04440        1.41300        0.00820
C         -0.01580        0.04410        0.03800
C          0.34870       -0.84730        1.28450
C         -0.35730       -1.90120        0.40500
C         -1.34160       -0.80190       -0.04830
O          0.55140       -2.00750       -0.75110
C          0.78920       -0.68880       -1.00770
N          1.50040       -0.14220       -1.89100
H          0.63250        1.64120       -0.72910
H          1.40260       -1.00810        1.52000
H         -0.22380       -0.57160        2.17130
H         -0.64050       -2.89690        0.73020
H         -2.06120       -0.52230        0.72250
H         -1.82110       -0.92150       -1.02180
H          1.96390       -0.81440       -2.50150
