14
gdb 9107	7.79501	0.96287	0.86157	4.6334	73.34	-0.2449	-0.0476	0.1974	1280.817	0.104809	-378.70468	-378.695956	-378.695011	-378.738443	29.893
C         -0.25810        1.60120        0.08550
N          0.04260        0.18760        0.13860
C         -0.89370       -0.61260       -0.12780
N         -0.78170       -2.00380       -0.12480
C          0.32990       -2.78960        0.15790
O          1.42460       -2.38140        0.45790
C          0.01850       -4.21220        0.04830
C         -0.20280       -5.39150       -0.03250
H          0.40650        2.08710       -0.63770
H         -1.30190        1.82880       -0.19000
H         -0.04910        2.05410        1.06120
H         -1.91490       -0.30080       -0.39560
H         -1.62060       -2.51210       -0.35810
H         -0.38120       -6.43730       -0.09940
