24
gdb 14792	11.31851	0.53039	0.51805	0.8453	84.18	-0.2475	0.0906	0.3381	2247.3252	0.221405	-351.412879	-351.401976	-351.401032	-351.449857	37.486
C         -0.00630        1.57030        0.03790
C          0.01800        0.03940        0.02600
C          0.73940       -0.55450        1.23990
C          0.76380       -2.07670        1.22850
O          1.44510       -2.53100        2.37750
C          1.52270       -3.93660        2.46450
C          2.27330       -4.31190        3.73490
C          2.40580       -5.82620        3.91210
H          1.00920        1.98140        0.03870
H         -0.52670        1.96860       -0.83870
H         -0.51600        1.95030        0.93010
H         -1.01110       -0.34220       -0.01000
H          0.50310       -0.31130       -0.89470
H          1.77290       -0.18860        1.27950
H          0.25580       -0.21950        2.16590
H         -0.26570       -2.47680        1.20980
H          1.26390       -2.44560        0.31520
H          0.50970       -4.37770        2.47390
H          2.03900       -4.34870        1.57890
H          3.26420       -3.84430        3.70390
H          1.74830       -3.87300        4.59120
H          1.42410       -6.30970        3.96940
H          2.94950       -6.28080        3.07650
H          2.94800       -6.06870        4.83060
