16
gdb 16168	4.55655	1.63958	1.39744	2.0023	64.98	-0.2477	0.0008	0.2485	900.1295	0.130773	-383.723073	-383.715947	-383.715002	-383.754535	27.261
O          0.08060        1.36130        0.32060
C          0.09420        0.00950       -0.11120
C         -1.30000       -0.53640       -0.23630
O         -1.94090       -0.83140        1.04270
C         -1.73680       -1.90050        0.11430
C         -2.96060       -2.23920       -0.73060
C         -3.20240       -0.95900       -1.50730
C         -2.27830       -0.03080       -1.25010
H         -0.39110        1.37780        1.16120
H          0.59250        0.00650       -1.08650
H          0.67380       -0.62940        0.57110
H         -1.05580       -2.68040        0.44600
H         -2.76100       -3.09120       -1.39310
H         -3.81830       -2.51540       -0.10560
H         -4.05720       -0.83210       -2.16200
H         -2.22430        0.96490       -1.67080
