18
gdb 19932	3.60043	2.31422	1.90687	1.7408	69.62	-0.2438	0.0787	0.3225	771.36	0.156994	-347.783833	-347.777709	-347.776765	-347.813788	25.318
C          0.13190        1.58140        0.21150
C          1.35540        0.75350       -0.07210
C          2.20520        0.32700        1.12100
C          1.27200       -0.46580        2.04300
O          0.53220        0.32840        3.00870
C         -0.72470       -0.20710        2.53300
C         -0.03980       -0.79180        1.28120
C         -0.00680        0.08440        0.03500
H          0.02440        2.00500        1.20400
H         -0.24960        2.20730       -0.58840
H          1.84420        0.86560       -1.03380
H          3.02280       -0.32200        0.78630
H          2.65450        1.16800        1.66060
H          1.77700       -1.30010        2.54560
H         -1.12370       -0.96310        3.22250
H         -1.47540        0.57480        2.37560
H         -0.25530       -1.83510        1.04520
H         -0.51940       -0.27200       -0.85120
