17
gdb 19768	3.13706	2.81553	2.38377	0.8124	65.94	-0.2219	0.0865	0.3084	690.7541	0.146413	-363.85004	-363.844353	-363.843408	-363.879538	23.649
C          0.02430        1.53350        0.10940
C          1.51040        1.82890       -0.00720
C          2.39880        0.84170        0.65910
C          1.80820       -0.22210        1.56630
O          0.46490       -0.56280        1.23540
C          0.03670       -0.00080       -0.00390
C          1.10310       -0.23640       -1.08500
N          2.17050        0.74940       -0.79630
H         -0.42020        1.85830        1.05360
H         -0.52960        1.99630       -0.71540
H          1.85210        2.84090       -0.19960
H          3.41120        1.13790        0.92650
H          2.43460       -1.12690        1.51790
H          1.82910        0.12530        2.60830
H         -0.93660       -0.44550       -0.21790
H          1.49740       -1.25640       -1.05960
H          0.71250       -0.04040       -2.08920
