15
gdb 19385	3.06952	2.42883	1.63558	2.1832	66.66	-0.245	-0.0228	0.2221	797.83	0.118923	-362.617329	-362.61066	-362.609716	-362.648028	25.732
O         -0.00850        0.02380       -0.06450
C         -0.02280        1.21670        0.04430
C         -1.08270        2.28770       -0.03460
C         -0.85110        3.28040        1.05760
N          0.00220        3.36520       -0.12650
C          1.02900        2.29960        0.07230
C          2.31240        2.44560        0.83560
C          2.33700        2.26780       -0.66060
H         -1.97090        2.29110       -0.65510
H         -1.57740        4.08410        1.13640
H         -0.41630        2.95640        2.00000
H          2.53310        3.43230        1.22930
H          2.61950        1.61750        1.46530
H          2.64510        1.31090       -1.06780
H          2.56660        3.13390       -1.27070
