15
gdb 2200	3.57419	2.53247	1.82212	0.9851	57.86	-0.2511	-0.0299	0.2213	742.7165	0.122875	-345.661657	-345.654119	-345.653175	-345.693378	26.476
C         -0.26710        1.27210       -1.42800
C          0.25360       -0.05920       -0.91790
O          1.63830       -0.32460       -1.25900
C          2.05130       -0.54670        0.11370
C          3.20510        0.33050        0.56450
C          0.63190       -0.17210        0.56700
O          0.08240        0.01010        1.61050
H          0.36160        2.09770       -1.08380
H         -0.28060        1.27920       -2.52180
H         -1.28760        1.43350       -1.06720
H         -0.39800       -0.88350       -1.24410
H          2.27690       -1.60890        0.29090
H          2.97500        1.38900        0.41600
H          3.40660        0.16050        1.62660
H          4.10840        0.08890       -0.00320
