17
gdb 8116	3.12334	1.96716	1.50998	1.8375	64.81	-0.1971	0.0624	0.2595	880.8602	0.140739	-400.931166	-400.923043	-400.922099	-400.963	30.802
C         -0.25250        1.49530        0.04010
N          0.11060        0.08840        0.02200
C          1.18700       -0.37950       -0.88990
C          1.85580       -1.10300        0.28720
O          2.31060       -2.40640        0.23790
C          2.22450       -0.13100        1.35740
O          2.78010        1.11000        1.02280
C          0.76030       -0.50930        1.17960
H          0.60240        2.18030        0.14970
H         -0.77530        1.74640       -0.88940
H         -0.94950        1.67240        0.86640
H          0.81060       -1.06490       -1.65620
H          1.78500        0.41350       -1.35420
H          3.25990       -2.38890        0.07300
H          2.67660       -0.62580        2.22040
H          2.51160        1.74760        1.69250
H          0.17710       -0.94630        1.98490
