18
gdb 12692	2.90623	1.97886	1.38387	1.5957	67.39	-0.241	-0.0247	0.2163	945.0359	0.152972	-384.972473	-384.964187	-384.963243	-385.005235	30.298
C         -0.27320        1.57400        0.07320
C          0.12430        0.10580       -0.02890
C          1.13040       -0.28430       -1.11730
O          1.74130       -1.49490       -0.66490
C          1.87840       -1.44150        0.75110
C          3.28690       -1.04550        1.20160
C          0.82790       -0.42760        1.22180
O          0.62680       -0.09570        2.36100
H          0.61190        2.21720        0.11890
H         -0.87540        1.88580       -0.78490
H         -0.85280        1.74080        0.98490
H         -0.77340       -0.51850       -0.15040
H          0.67780       -0.49010       -2.08990
H          1.88090        0.51230       -1.24990
H          1.63060       -2.43300        1.15020
H          3.57090       -0.06820        0.79890
H          3.32100       -0.98990        2.29320
H          4.01370       -1.78460        0.85590
