18
gdb 15726	2.7118	2.05175	1.36739	1.2763	63.75	-0.2555	0.0863	0.3418	943.6497	0.154073	-422.076789	-422.068542	-422.067598	-422.10974	29.833
C          0.37410        1.09080        0.35910
O          0.42320       -0.29720        0.08220
C          0.46970       -0.60950       -1.29430
O          1.66860       -0.21610       -1.90020
C          2.62000       -1.30340       -1.87670
C          1.92450       -2.47990       -1.18460
C          0.43060       -2.14610       -1.37780
O         -0.45430       -2.74420       -0.46820
H          1.26140        1.60310       -0.02980
H         -0.52240        1.55200       -0.08100
H          0.33580        1.20260        1.44470
H         -0.34760       -0.09410       -1.81710
H          2.88670       -1.53470       -2.91480
H          3.52650       -0.97390       -1.35900
H          2.20170       -3.44740       -1.60660
H          2.14170       -2.49320       -0.11280
H          0.10640       -2.43460       -2.38360
H         -0.41150       -2.20160        0.33050
