17
gdb 6200	3.81985	1.53394	1.4336	4.3756	64.37	-0.2406	0.0348	0.2754	928.8465	0.1423	-401.050074	-401.042151	-401.041207	-401.082019	30.29
C          0.33680        1.40620        0.01390
C         -0.12800       -0.05140       -0.02420
O         -1.54470       -0.12910       -0.09070
C          0.55080       -0.82520       -1.19710
N          1.73400       -1.38490       -0.57390
C          1.66400       -1.49250        0.79250
O          2.48890       -2.01670        1.50610
C          0.34800       -0.83390        1.21050
H          1.42770        1.46890        0.07540
H          0.02370        1.93760       -0.89330
H         -0.09140        1.91800        0.88030
H         -1.84940        0.48310       -0.76910
H         -0.14040       -1.59760       -1.56080
H          0.81030       -0.16850       -2.03520
H          2.45820       -1.86880       -1.08140
H          0.48150       -0.22190        2.10420
H         -0.37660       -1.62080        1.44520
