14
gdb 10245	3.22644	1.73432	1.15692	6.0345	62.14	-0.255	-0.0411	0.214	975.0861	0.105308	-415.896473	-415.888126	-415.887182	-415.9299	28.515
C         -0.19020        1.47940        0.01270
C          0.07350       -0.01100        0.02510
N          0.29260       -0.71080        1.06330
N          0.04250       -0.68910       -1.22680
C          0.25970        0.00320       -2.43610
O          0.13790       -0.45570       -3.53550
C         -0.21850       -2.09800       -1.20780
O         -0.08930       -2.82570       -2.14670
H          0.67230        2.03950       -0.36340
H         -1.05120        1.73750       -0.61020
H         -0.38040        1.81470        1.03390
H          0.22620       -0.14070        1.90450
H          0.57110        1.04570       -2.25790
H         -0.55390       -2.40760       -0.20910
