19
gdb 17239	4.35977	1.65219	1.58628	1.5553	74.59	-0.2316	0.0894	0.321	913.0427	0.166552	-327.866551	-327.859338	-327.858394	-327.89801	28.279
C          0.04920        1.47070       -0.22480
C         -0.04240       -0.00660        0.17880
C         -1.45140       -0.51810        0.17520
C         -2.59840       -0.16640        1.13030
C         -3.37910       -1.31940        0.44550
C         -3.52260       -0.79900       -0.99220
N         -2.03630       -0.90120       -1.16800
C         -1.98850       -1.88370       -0.04230
H          1.08760        1.81520       -0.22310
H         -0.35870        1.61770       -1.22920
H         -0.51440        2.10820        0.46490
H          0.54980       -0.61570       -0.51310
H          0.38870       -0.15080        1.17810
H         -2.32280       -0.41190        2.15970
H         -3.04210        0.83540        1.09440
H         -4.17250       -1.85150        0.96710
H         -3.99830       -1.51100       -1.67210
H         -3.94860        0.20060       -1.14380
H         -1.53600       -2.86510       -0.10720
