20
gdb 10080	3.13004	1.19074	0.94586	2.2555	72.78	-0.244	-0.0227	0.2214	1269.8009	0.173585	-386.14301	-386.132836	-386.131892	-386.179403	34.5
C          1.03360        1.90710       -0.05110
C          0.58080        0.45040        0.06400
C          0.91250       -0.38330       -1.17760
C          0.51260       -1.86310       -0.97650
C          0.81070       -2.72390       -2.18180
O          1.64360       -3.59540       -2.20900
O          0.21180        0.15870       -2.29470
C          1.00500        0.42040       -3.43310
H          2.12150        1.97900       -0.16190
H          0.57110        2.38610       -0.91830
H          0.75330        2.47630        0.84010
H          1.04510       -0.02350        0.93710
H         -0.50430        0.40780        0.22010
H          1.99600       -0.33230       -1.36330
H          1.03920       -2.28050       -0.11350
H         -0.56870       -1.89210       -0.78840
H          0.19420       -2.49510       -3.07890
H          1.79520        1.15530       -3.22240
H          1.47850       -0.48930       -3.83190
H          0.34020        0.82950       -4.19840
