18
gdb 18829	4.19949	2.07094	1.72367	0.3296	76.16	-0.2088	0.0262	0.235	821.0745	0.155758	-310.64687	-310.640396	-310.639452	-310.677052	26.666
C         -0.01720        1.50610        0.06830
C         -0.07410        0.01460       -0.00260
C          0.00330       -0.77710       -1.08060
C         -0.00700       -2.20840       -0.66380
C          0.93510       -2.65850        0.48580
C          1.43170       -1.47580        1.30790
C         -0.02780       -0.86910        1.23240
C         -0.50360       -2.28040        0.75390
H          0.87200        1.85040        0.61320
H          0.00650        1.95540       -0.92850
H         -0.88430        1.91300        0.60460
H          0.10950       -0.44800       -2.10770
H         -0.27480       -2.99470       -1.36060
H          1.38720       -3.64280        0.45010
H          1.66340       -1.79610        2.32700
H          2.25010       -0.85930        0.91960
H         -0.42570       -0.44430        2.15390
H         -1.34340       -2.86470        1.11020
