16
gdb 1621	3.05932	2.30622	1.77809	3.0848	60.54	-0.2839	0.028	0.3119	790.0257	0.135329	-325.80068	-325.792432	-325.791488	-325.832828	29.453
C          0.02840        1.54310        0.13010
C         -0.02040        0.02090        0.01670
O         -1.34120       -0.48050        0.11520
C          0.68120       -0.51400       -1.26860
C          0.78440       -2.05000       -1.26200
C         -0.05780       -0.04730       -2.44650
N         -0.68340        0.32780       -3.34400
H          1.06100        1.90580        0.16150
H         -0.46930        2.01610       -0.72380
H         -0.47860        1.86080        1.04450
H          0.51310       -0.42440        0.86460
H         -1.87380       -0.05250       -0.56690
H          1.68750       -0.07920       -1.31640
H         -0.20690       -2.48810       -1.13220
H          1.22040       -2.42300       -2.19140
H          1.41700       -2.37000       -0.42900
