17
gdb 16398	3.57344	2.23274	1.76444	3.3923	69.34	-0.2518	0.0346	0.2864	790.4756	0.145704	-363.869615	-363.863297	-363.862353	-363.899976	25.28
N         -0.07390        1.26550       -0.28530
C         -0.04100        0.04140        0.03400
O          1.12240       -0.57560        0.40790
C          1.10750       -1.97240        0.76250
C         -0.28090       -2.58790        0.66230
C         -0.91890       -2.16930       -0.68840
C         -1.26470       -0.82920        0.02970
C         -1.29860       -1.64580        1.35760
H          0.86220        1.67120       -0.21540
H          1.81030       -2.48080        0.09130
H          1.49600       -2.04740        1.78540
H         -0.24740       -3.64440        0.93890
H         -0.28060       -2.12940       -1.57520
H         -1.82120       -2.74370       -0.90920
H         -2.13100       -0.24870       -0.27960
H         -2.26850       -2.12690        1.50110
H         -0.99610       -1.14290        2.28010
