18
gdb 10964	5.08668	1.24811	1.13124	2.0631	67.9	-0.2472	0.078	0.3252	1068.4546	0.153116	-384.896571	-384.888411	-384.887467	-384.928912	30.956
O         -0.04160        1.40380       -0.17210
C          0.04200        0.01240        0.10920
C         -1.35500       -0.56360       -0.01980
C         -2.02310       -0.60110       -1.43830
C         -2.21320       -2.11530       -1.27140
O         -3.37040       -2.79680       -1.60780
C         -0.89450       -2.80480       -1.08210
C         -1.53750       -2.08440        0.09100
H          0.84440        1.77420       -0.12600
H          0.73060       -0.49020       -0.58780
H          0.42140       -0.16820        1.12860
H         -2.00720       -0.04030        0.68520
H         -2.97250       -0.06320       -1.46050
H         -1.40700       -0.27320       -2.28200
H         -3.28500       -3.10750       -2.51590
H         -0.96730       -3.88600       -1.01730
H          0.01610       -2.44080       -1.55230
H         -1.79690       -2.62200        0.99500
