22
gdb 5935	3.48201	1.02209	0.96935	0.1706	87.36	-0.2393	0.0671	0.3065	1381.7378	0.196906	-313.061392	-313.050496	-313.049552	-313.098394	38.468
C          0.13970        1.53700       -0.06350
C         -0.03080        0.01410       -0.06590
C         -1.49310       -0.51610        0.03070
C         -2.16280       -0.05920        1.34750
C         -2.33770       -0.03570       -1.17230
C         -1.43650       -1.98450        0.01300
C         -1.38200       -3.18800       -0.00200
C         -1.31980       -4.64340       -0.01990
H          1.20150        1.79340       -0.13480
H         -0.36620        2.01010       -0.91060
H         -0.24380        1.99360        0.85400
H          0.41450       -0.39880       -0.97850
H          0.53580       -0.41510        0.76870
H         -2.27080        1.02930        1.37520
H         -3.15920       -0.50000        1.44200
H         -1.57270       -0.37080        2.21440
H         -1.87330       -0.33040       -2.11810
H         -3.33810       -0.47590       -1.13650
H         -2.44710        1.05300       -1.16470
H         -1.88350       -5.05710       -0.86370
H         -0.28680       -4.99820       -0.10820
H         -1.73810       -5.07250        0.89760
