17
gdb 21150	3.18485	1.88472	1.20766	3.7333	71.85	-0.1872	0.0481	0.2353	995.9116	0.143514	-360.059695	-360.051236	-360.050291	-360.093054	30.035
C         -0.00830        1.41960        0.24970
N          0.03870        0.01710       -0.12820
C         -1.10250       -0.75950        0.00920
C         -1.24250       -2.14180        0.04030
C         -0.15070       -3.16440       -0.02090
C         -2.63980       -2.33090        0.13120
N         -3.32430       -1.19460        0.15600
N         -2.35490       -0.24040        0.08560
H          0.99310        1.84490        0.15810
H         -0.65690        1.97390       -0.43880
H         -0.36900        1.59160        1.27640
H          0.86320       -0.46270        0.20230
H          0.57480       -3.05530        0.79720
H         -0.56570       -4.17320        0.05670
H          0.41530       -3.11750       -0.96010
H         -3.16900       -3.27320        0.17870
H         -2.62500        0.72670        0.07770
