9
gdb 4221	6.21167	2.90875	1.98107	3.3481	46.06	-0.2572	-0.0899	0.1673	559.2432	0.056396	-379.527167	-379.522386	-379.521442	-379.555854	17.148
F         -0.00300        0.08480        0.00380
C         -0.02890        1.39770        0.01060
N         -1.23000        1.95520        0.02960
C         -1.19990        3.28180        0.03610
C          0.01640        3.96530        0.02340
N          1.17630        3.31330        0.00460
N          1.16000        1.98450       -0.00200
H         -2.15300        3.80420        0.05150
H          0.07330        5.04780        0.02830
