13
gdb 846	7.04294	2.13598	1.6589	1.2965	56.39	-0.1971	0.0174	0.2145	724.1518	0.1028	-340.674744	-340.668051	-340.667106	-340.705321	24.134
C          0.01250        1.44630       -0.02590
C         -0.05740       -0.03750        0.02350
N         -1.10400       -0.79310       -0.12560
C         -0.62840       -2.09030        0.01020
N         -1.51720       -3.15880       -0.03240
C          0.71070       -2.04880        0.23700
O          1.08350       -0.71770        0.24660
H          0.69010        1.78310       -0.81740
H         -0.98460        1.84280       -0.21770
H          0.38350        1.85440        0.92000
H         -2.35300       -2.92140       -0.54980
H         -1.11300       -4.02010       -0.37230
H          1.48760       -2.77230        0.40440
