12
gdb 20695	3.90575	2.00714	1.33677	5.7594	59.27	-0.2743	-0.1042	0.1701	846.2787	0.082949	-414.661762	-414.654902	-414.653958	-414.693429	24.219
C         -0.02960        1.50090        0.00720
C          0.00140        0.00350       -0.01860
N         -0.03560       -0.62050       -1.14880
C         -0.00580       -2.01210       -1.14480
O         -0.03440       -2.70260       -2.11580
O          0.06390       -2.67650        0.10090
N          0.10280       -2.00990        1.29600
C          0.07260       -0.72580        1.23410
H          0.86450        1.89150        0.50680
H         -0.08120        1.89110       -1.00890
H         -0.89420        1.85370        0.58140
H          0.10410       -0.21480        2.19080
