13
gdb 12182	3.89298	1.484	1.1578	1.5238	56.92	-0.2712	-0.052	0.2191	967.151	0.093149	-435.724916	-435.716977	-435.716033	-435.758199	26.993
O          0.44150        0.82110        0.49880
C          0.18290       -0.40510       -0.11830
C         -1.33070       -0.71170       -0.28760
O         -1.14360       -0.81890       -1.73560
C          0.18240       -0.44160       -1.64030
N          1.04350       -0.18700       -2.50940
C         -1.83530       -2.00630        0.30870
O         -2.44290       -2.06450        1.34360
H          1.32720        1.10000        0.23820
H          0.75250       -1.23280        0.32840
H         -1.96590        0.13430       -0.01850
H          0.67880       -0.27390       -3.45910
H         -1.57430       -2.90900       -0.28750
