14
gdb 3669	7.58248	1.96879	1.59392	3.0064	60.27	-0.2475	0.0008	0.2483	773.7674	0.113095	-324.592116	-324.585175	-324.584231	-324.623144	24.421
C          0.04750        1.50110       -0.01770
C         -0.08790        0.02050        0.03610
C         -1.11790       -0.83680       -0.19150
C         -0.55650       -2.12740        0.03980
C         -1.21760       -3.46480       -0.05820
N          0.70860       -2.04170        0.37820
O          1.01030       -0.67810        0.37690
H          0.80990        1.79860       -0.74500
H         -0.90220        1.95700       -0.30350
H          0.34810        1.90270        0.95560
H         -2.12700       -0.59220       -0.48020
H         -1.60310       -3.63840       -1.06830
H         -0.50350       -4.25420        0.18370
H         -2.06470       -3.53490        0.63200
