15
gdb 20805	3.28618	1.80463	1.26059	3.3468	63.65	-0.2213	0.0002	0.2215	949.3494	0.119993	-395.987406	-395.979742	-395.978798	-396.020129	27.589
C         -0.30620        1.59170       -0.05800
C          0.03350        0.09400        0.05080
C          0.76410       -0.44750       -1.13310
C          2.07740       -0.81650       -1.33490
O          3.07810       -0.78460       -0.43030
N          2.25620       -1.23850       -2.60760
N          1.11230       -1.15590       -3.24200
N          0.22110       -0.68180       -2.36300
H          0.60240        2.18850       -0.17780
H         -0.95300        1.79380       -0.91810
H         -0.82720        1.93480        0.84080
H          0.66320       -0.07670        0.92910
H         -0.88730       -0.48000        0.21700
H          3.86520       -1.12220       -0.87580
H         -0.73340       -0.55180       -2.65900
