20
gdb 13142	3.87961	1.223	1.02536	2.1783	72.08	-0.244	0.0779	0.3219	1211.9981	0.175185	-386.118699	-386.109452	-386.108507	-386.153605	32.394
C          0.06880        1.48830       -0.03490
C         -0.02340        0.00310        0.27000
O         -1.20210       -0.50580       -0.32960
C         -1.38100       -1.88190       -0.14330
C         -1.99420       -2.33520        1.20260
O         -3.18650       -2.80650        0.54630
C         -2.69420       -2.41990       -0.76270
C         -3.60800       -1.43810       -1.46720
H          0.97330        1.91320        0.41040
H          0.10010        1.65600       -1.11510
H         -0.79890        2.01740        0.36890
H          0.85730       -0.53150       -0.12410
H         -0.04250       -0.16630        1.35880
H         -0.47570       -2.43100       -0.43870
H         -1.46710       -3.14010        1.73010
H         -2.20080       -1.51480        1.90190
H         -2.53830       -3.31130       -1.38580
H         -3.72050       -0.52140       -0.88540
H         -3.20540       -1.17660       -2.45100
H         -4.59280       -1.89450       -1.60670
