16
gdb 10423	2.46884	2.11415	1.44493	2.6069	66.54	-0.2551	0.0187	0.2738	910.9227	0.128783	-383.67698	-383.668752	-383.667808	-383.709851	30.062
O          0.01580        1.28810        0.36380
C         -0.04310       -0.05730       -0.04080
C         -1.50050       -0.51960       -0.17790
C         -1.72960       -2.05080       -0.03460
C         -2.33540       -1.69900        1.33630
O         -2.16710       -0.28000        1.10440
C         -2.18860        0.13520       -1.28050
C         -2.75340        0.64400       -2.21140
H         -0.57210        1.35920        1.12720
H          0.47580       -0.13940       -1.00100
H          0.45820       -0.72380        0.68080
H         -2.43160       -2.46420       -0.75710
H         -0.81710       -2.64960       -0.02270
H         -3.38990       -1.95920        1.47520
H         -1.76540       -2.03910        2.20850
H         -3.25040        1.10870       -3.02700
