16
gdb 17723	4.51078	2.58603	2.09968	1.4072	67.64	-0.2297	0.0894	0.3191	683.3857	0.132703	-346.501197	-346.495897	-346.494953	-346.530168	22.841
C         -0.10970        1.55740        0.00790
C          1.44830        1.29670       -0.01840
C          1.33700        0.14380        1.02120
C          1.81640       -1.03150        0.13610
C          0.63750       -2.05100        0.24240
O         -0.55570       -1.19870        0.21630
C          0.08240        0.03920        0.11010
C          1.28240        0.00920       -0.87690
H         -0.50620        2.07270        0.88770
H         -0.55800        1.94500       -0.91170
H          2.23170        2.04720       -0.09420
H          1.31220        0.23040        2.10760
H          2.82570       -1.44660        0.13650
H          0.59440       -2.74630       -0.60310
H          0.64560       -2.61990        1.17860
H          1.19500       -0.05830       -1.96150
