13
gdb 21917	5.16834	1.84177	1.44706	2.5019	59.52	-0.2645	0.0015	0.266	807.3049	0.098212	-394.753396	-394.747159	-394.746215	-394.784026	22.861
O          0.29610        1.32700        0.35110
C          0.10110       -0.01080        0.02220
C         -1.39490       -0.59340        0.03220
N         -1.14210       -0.91710       -1.38290
N         -1.50400       -1.55820       -2.50990
C         -0.38330       -1.38550       -3.22770
N          0.65340       -0.71860       -2.62180
C          0.10320       -0.45470       -1.44820
H         -0.12440        1.87770       -0.31900
H          0.76950       -0.59120        0.66210
H         -1.56330       -1.46780        0.66480
H         -2.17470        0.15540        0.18870
H         -0.31460       -1.75860       -4.23920
