22
gdb 6584	3.73806	1.75908	1.51566	0.0346	82.	-0.2797	0.0844	0.3641	963.9624	0.201483	-313.081152	-313.073331	-313.072387	-313.112332	32.167
C         -0.03040        1.52480        0.03340
C          0.02470        0.01470        0.02970
C          0.99210       -0.78570       -0.89600
C          0.73080       -1.93410        0.12690
C          1.65360       -3.12280        0.26530
C          0.65570       -0.80310        1.19870
C         -0.76900       -2.21580       -0.11630
C         -1.30010       -0.75020       -0.18940
H          0.96020        1.96300        0.19550
H         -0.41320        1.90850       -0.91980
H         -0.69240        1.89400        0.82590
H          0.69880       -0.94410       -1.93980
H          2.01890       -0.41130       -0.84820
H          2.68970       -2.81000        0.43390
H          1.35550       -3.75830        1.10770
H          1.63530       -3.74430       -0.63790
H          1.64480       -0.43060        1.48090
H          0.05070       -0.97760        2.09540
H         -0.93590       -2.77500       -1.04290
H         -1.21620       -2.78950        0.70220
H         -2.03650       -0.52570        0.58930
H         -1.75620       -0.51120       -1.15580
