15
gdb 5219	6.90522	1.19118	1.05002	3.0891	65.51	-0.216	0.0158	0.2318	1108.7582	0.118466	-399.809959	-399.802381	-399.801437	-399.84371	26.867
C          0.10300        1.65070       -0.01870
C         -0.14920        0.15780       -0.22310
N         -1.56560       -0.08550       -0.46420
C         -1.91190       -1.00380       -1.23580
O         -1.11140       -1.88520       -1.93760
C         -1.96020       -2.69950       -2.66390
C         -3.21460       -2.34460       -2.41390
O         -3.22160       -1.29190       -1.52360
H          1.15740        1.83650        0.20970
H         -0.15910        2.21490       -0.91900
H         -0.50620        2.03210        0.80550
H          0.48090       -0.22240       -1.03920
H          0.14960       -0.38690        0.68360
H         -1.51120       -3.45500       -3.28340
H         -4.16830       -2.70460       -2.75560
