16
gdb 11342	4.93876	1.36418	1.0845	5.6534	72.92	-0.2073	0.0035	0.2109	1063.9885	0.131681	-379.945978	-379.938168	-379.937224	-379.978129	28.504
C         -0.03300        1.41900       -0.07050
N         -0.06070       -0.02230        0.08830
C          0.62240       -0.62660        1.09770
C          1.24310       -0.10630        2.17670
C          1.77370       -1.19470        2.98260
N          2.41890       -1.12130        4.07080
O          1.46220       -2.39540        2.35310
C          0.73100       -2.13160        1.16580
H          0.98240        1.80560       -0.23790
H         -0.66240        1.70020       -0.91690
H         -0.43520        1.89830        0.82800
H         -0.20330       -0.56350       -0.74910
H          1.36240        0.92900        2.45150
H          2.66530       -2.05540        4.39950
H         -0.25550       -2.61240        1.21980
H          1.26550       -2.55030        0.30080
