16
gdb 12495	3.38707	1.93388	1.3298	2.665	61.2	-0.2391	-0.0259	0.2132	897.8043	0.130938	-420.877321	-420.870071	-420.869127	-420.909582	26.713
O          0.14280        0.21000        1.00700
C          0.01480        1.10680        0.20880
C         -1.33430        1.36860       -0.47180
O         -1.61500        2.72580       -0.73390
C         -1.05340        3.24680       -1.92500
C          0.42040        3.59910       -1.76550
O          1.21910        2.46330       -1.48710
C          1.19630        2.01670       -0.14940
H         -1.36690        0.76780       -1.39640
H         -2.11150        0.99280        0.19900
H         -1.17420        2.52880       -2.75090
H         -1.62270        4.15090       -2.16860
H          0.79950        4.02500       -2.70140
H          0.53620        4.35230       -0.97080
H          1.19340        2.86530        0.55550
H          2.10960        1.44130        0.02370
