13
gdb 21270	3.52683	1.89633	1.24302	2.4967	56.32	-0.2306	0.0019	0.2326	905.0291	0.095334	-435.709031	-435.701904	-435.70096	-435.740576	25.835
C         -0.06440        1.40330        0.02650
O          0.00630       -0.01320        0.03680
C          0.61750       -0.55640       -1.03300
C          1.19230       -0.01910       -2.14290
O          1.67680       -1.00100       -2.93620
N          1.41940       -2.23390       -2.34080
C          0.79680       -1.96220       -1.22320
O          0.38210       -2.90690       -0.36720
H          0.94000        1.84740        0.00970
H         -0.62950        1.76280       -0.84400
H         -0.57830        1.69790        0.94200
H          1.33070        0.98840       -2.49720
H          0.63030       -3.76440       -0.73840
