10
gdb 23809	3.3702	2.27825	1.35934	2.0794	51.3	-0.2523	-0.0547	0.1976	769.4189	0.060188	-462.710604	-462.704867	-462.703923	-462.740681	21.093
F          0.00900        0.01180        0.00390
C         -0.00110        1.33460        0.01050
C         -1.19240        2.05270        0.02960
N         -1.24220        3.38360        0.03680
N         -0.11290        4.08480        0.02550
C          1.05760        3.44970        0.00710
C          1.17270        2.06330       -0.00120
F          2.35350        1.46740       -0.01960
H         -2.14160        1.52600        0.03940
H          1.95070        4.06690       -0.00150
