14
gdb 17032	4.48383	1.58956	1.3452	1.2547	63.54	-0.2584	0.0285	0.2868	891.4301	0.106028	-382.427228	-382.420443	-382.419498	-382.458042	26.616
O          0.07350        1.51110       -0.02290
C          0.08540        0.12850       -0.04960
C          0.01500       -0.63420        1.30820
O         -1.38070       -0.14090        1.44930
C         -1.27820       -0.62100        0.04570
C         -0.54860       -1.88960        0.57870
C          0.28310       -2.70160       -0.28170
C          0.96920       -3.38810       -0.99160
H         -0.58110        1.74920        0.65010
H          0.80650       -0.21360       -0.79180
H          0.65780       -0.58590        2.18710
H         -2.17170       -0.55690       -0.57530
H         -1.19360       -2.47880        1.23320
H          1.57590       -3.99370       -1.61880
