22
gdb 9755	3.08414	1.58501	1.44988	0.1472	83.02	-0.2347	0.0278	0.2625	1034.0367	0.200582	-313.092383	-313.083666	-313.082722	-313.12525	33.57
C          0.12400        1.43670        0.27080
C         -0.12920       -0.06340        0.08630
C         -1.60570       -0.48270       -0.15470
C         -2.11540        0.06870       -1.49650
C         -1.73000       -2.03850       -0.09210
C         -2.21160       -2.38360        1.33980
C         -2.80210       -1.07770        1.81570
C         -2.48580       -0.06430        1.01290
H          1.18820        1.62770        0.44190
H         -0.17330        2.01540       -0.60940
H         -0.42250        1.83340        1.13240
H          0.47080       -0.42960       -0.75790
H          0.23520       -0.59440        0.97480
H         -1.50590       -0.30320       -2.32840
H         -3.15090       -0.23910       -1.67330
H         -2.08760        1.16260       -1.52780
H         -2.48390       -2.36850       -0.81450
H         -0.79240       -2.53620       -0.35700
H         -2.93520       -3.20680        1.34880
H         -1.38570       -2.69990        1.99240
H         -3.38830       -0.99630        2.72510
H         -2.78500        0.96740        1.16670
