17
gdb 11340	5.29014	1.22257	1.07157	4.6914	72.06	-0.2375	-0.0205	0.217	1113.8844	0.142899	-363.921342	-363.913233	-363.912288	-363.954546	29.139
C         -0.22780        1.52480       -0.05590
C          0.10080        0.02160        0.00850
C          0.80610       -0.49060       -1.20930
C          2.04770       -0.97670       -1.31630
C          2.33530       -1.37310       -2.72460
O          3.35670       -1.82240       -3.20040
N          1.16030       -1.11700       -3.40490
C          0.14060       -0.52880       -2.57200
H          0.68300        2.11830       -0.17960
H         -0.89610        1.75660       -0.89100
H         -0.72290        1.84780        0.86440
H          0.72030       -0.18020        0.88830
H         -0.83330       -0.53980        0.14810
H          2.78020       -1.09090       -0.52920
H          1.09590       -1.21570       -4.40330
H         -0.77970       -1.13170       -2.54440
H         -0.14540        0.47820       -2.90940
