22
gdb 13816	3.96756	1.13627	1.02683	1.4136	78.86	-0.2574	0.0764	0.3338	1268.5457	0.198991	-350.197849	-350.1882	-350.187255	-350.232347	35.803
C          0.28010        1.57520        0.11290
C         -0.18860        0.13410       -0.11980
C          0.50990       -0.51740       -1.29810
C          1.86460       -1.16910       -1.13840
C          0.64850       -2.01370       -1.45010
C          0.08460       -3.03020       -0.45660
C          0.38810       -4.46330       -0.90270
O          0.52390       -2.81880        0.88410
H          1.35420        1.60950        0.32410
H          0.09790        2.20090       -0.76840
H         -0.24400        2.03150        0.95870
H         -0.02170       -0.46610        0.77890
H         -1.27280        0.13030       -0.29680
H          0.36560        0.01690       -2.23590
H          2.62000       -1.03410       -1.90490
H          2.25890       -1.21220       -0.12790
H          0.58640       -2.37030       -2.47560
H         -1.00390       -2.90420       -0.39950
H          1.47030       -4.61670       -0.99850
H         -0.00020       -5.17700       -0.17110
H         -0.06460       -4.68000       -1.87560
H          1.46670       -3.01700        0.91110
