18
gdb 13191	4.31246	1.29927	1.08737	1.6079	68.	-0.2335	-0.0143	0.2192	1125.3178	0.152104	-384.941483	-384.932709	-384.931765	-384.976519	30.26
C          0.64550        1.52120        0.20990
C          0.88030        0.08290       -0.24190
C         -0.15100       -0.41270       -1.23580
O         -1.05870        0.26980       -1.65530
C         -0.02340       -1.86310       -1.69480
C         -0.11270       -2.12680       -3.21180
C          1.30460       -2.71160       -3.04190
O          1.31900       -2.39320       -1.62950
H          0.65910        2.20500       -0.64280
H         -0.32950        1.62720        0.69290
H          1.41820        1.83490        0.91720
H          1.86610       -0.05130       -0.70430
H          0.88780       -0.61560        0.60690
H         -0.71800       -2.46080       -1.08450
H         -0.88330       -2.83200       -3.52270
H         -0.18820       -1.22180       -3.81500
H          1.39240       -3.79110       -3.21040
H          2.10950       -2.19950       -3.58150
