19
gdb 11336	3.91563	1.48117	1.21004	2.7892	74.52	-0.2382	0.0361	0.2743	1063.7728	0.165624	-365.093279	-365.084753	-365.083809	-365.126868	30.732
C          0.22310        1.41450        0.10010
N         -0.10210        0.01760       -0.14140
C          0.44100       -0.58770       -1.10260
C          0.19220       -2.03010       -1.48790
C          1.41830       -2.37490       -2.34400
C          1.81020       -1.00550       -2.93600
C          1.18420       -0.70420       -4.29360
O          1.35620       -0.03820       -1.96520
H          1.14260        1.75340       -0.39100
H         -0.60230        2.04950       -0.24620
H          0.31530        1.57600        1.17910
H          0.06580       -2.65540       -0.60410
H         -0.73490       -2.09270       -2.06900
H          2.22740       -2.75660       -1.71440
H          1.21720       -3.11610       -3.12040
H          2.89650       -0.88790       -2.99950
H          0.10020       -0.85760       -4.27280
H          1.37680        0.33320       -4.57970
H          1.60930       -1.35950       -5.06080
