18
gdb 17208	4.44546	1.79285	1.58683	1.5904	71.51	-0.2225	0.0757	0.2982	869.9586	0.154261	-347.754218	-347.74731	-347.746365	-347.785347	27.401
C         -0.25300        1.34290        0.20430
C          1.17900        0.87900       -0.04430
C          0.04870       -0.09590       -0.04880
O         -0.07720       -1.09080        0.97590
C         -0.45540       -2.08800       -0.00100
C         -1.98610       -2.22890       -0.15870
C         -1.96020       -1.15150       -1.29020
C         -0.41560       -1.03720       -1.14930
H         -0.51550        1.62050        1.21950
H         -0.75720        1.91560       -0.56790
H          1.65110        1.13380       -0.98810
H          1.84890        0.85220        0.80860
H          0.16270       -2.98620        0.07000
H         -2.29940       -3.21680       -0.50760
H         -2.54450       -1.97800        0.74550
H         -2.27800       -1.53730       -2.26130
H         -2.50780       -0.22750       -1.08910
H          0.19970       -1.11140       -2.04540
