17
gdb 13391	5.71394	1.06977	0.97422	2.2886	64.58	-0.248	0.024	0.272	1179.2053	0.143008	-401.00741	-400.999362	-400.998418	-401.040793	28.32
O         -0.10720        1.41820       -0.13890
C          0.01730        0.00780       -0.04070
C         -1.38980       -0.57710       -0.04390
C         -1.42080       -2.08940        0.11330
C         -2.83730       -2.72410        0.03480
N         -2.80220       -3.61450       -1.13860
C         -1.62850       -3.52070       -1.60320
O         -0.71860       -2.71630       -1.00450
H          0.77510        1.79360       -0.20900
H          0.58950       -0.40860       -0.88180
H          0.53700       -0.28390        0.88760
H         -1.96060       -0.12950        0.77900
H         -1.89680       -0.29680       -0.97460
H         -0.88470       -2.39110        1.01980
H         -3.08980       -3.30070        0.93020
H         -3.61800       -1.96630       -0.09730
H         -1.25440       -4.04520       -2.47570
