13
gdb 9452	2.93109	1.79964	1.68796	2.68	59.97	-0.2507	-0.0128	0.2379	835.2427	0.094382	-398.571638	-398.563907	-398.562963	-398.603673	27.899
N          0.04670        1.51210        0.13000
C          0.01270        0.06190        0.04240
C         -1.40470       -0.55260       -0.13880
O         -1.01440       -1.13240       -1.42140
C          0.24450       -0.59650       -1.36450
O          1.10020       -0.63640       -2.18480
C          0.82120       -0.54660        1.08410
C          1.50370       -1.06400        1.92620
H          1.00720        1.82700        0.22320
H         -0.32270        1.92650       -0.72170
H         -1.69280       -1.32550        0.57320
H         -2.19630        0.18840       -0.26660
H          2.10750       -1.52000        2.67220
