13
gdb 5488	3.60636	2.03876	1.30664	2.3354	62.45	-0.2207	-0.043	0.1777	856.1863	0.097646	-394.835329	-394.828505	-394.827561	-394.866331	25.111
N          0.03150        1.36830        0.15930
C         -0.03370       -0.01420        0.06310
N         -1.11280       -0.73690        0.14020
C         -0.67490       -2.06000        0.07620
C          0.67050       -2.13130       -0.05550
N          1.11300       -0.79920       -0.04970
C          2.43670       -0.37340       -0.03550
O          3.37880       -1.11470       -0.13380
H          0.51900        1.82270       -0.60340
H         -0.90460        1.74440        0.24860
H         -1.38150       -2.87430        0.11840
H          1.37500       -2.93810       -0.14820
H          2.51960        0.71950        0.08670
