18
gdb 6522	2.77183	1.94542	1.41073	2.2291	69.75	-0.245	-0.0277	0.2173	939.3203	0.150433	-384.942948	-384.933976	-384.933032	-384.975597	33.545
C         -0.10970        1.45700        0.04370
C          0.03690       -0.05360        0.02000
C         -1.14750       -0.78010       -0.58750
C          1.41270       -0.62510       -0.16770
C          0.78690       -0.67690        1.21700
O          1.21880        0.21650        2.20610
C          0.36180       -1.99410        1.76570
O          0.14730       -2.99510        1.12270
H          0.73450        1.94120        0.53510
H         -0.18520        1.83600       -0.98180
H         -1.02150        1.75060        0.57490
H         -1.27180       -0.46710       -1.63030
H         -1.01970       -1.86280       -0.56740
H         -2.07300       -0.53200       -0.05570
H          1.51200       -1.57980       -0.67440
H          2.24340        0.06290       -0.28860
H          2.13500        0.01040        2.42000
H          0.26340       -1.97770        2.87430
