15
gdb 16156	4.57296	1.70321	1.45142	0.6246	60.33	-0.2478	0.0103	0.2581	855.4633	0.119699	-399.786029	-399.779084	-399.77814	-399.817405	26.092
O          0.05980        1.40270        0.40140
C          0.01310        0.08580       -0.12160
C         -1.35450       -0.52540       -0.05340
C         -1.99020       -1.07370        1.18940
C         -1.76620       -1.99080        0.00170
N         -2.87890       -2.12430       -0.91270
C         -3.08710       -0.95850       -1.37440
O         -2.27040        0.05870       -0.98800
H         -0.54150        1.94050       -0.12480
H          0.37050        0.05350       -1.16210
H          0.70010       -0.51150        0.48590
H         -1.32750       -1.20390        2.03790
H         -3.00880       -0.79140        1.43350
H         -1.08500       -2.83040        0.07160
H         -3.86670       -0.67650       -2.07130
