14
gdb 21714	3.52249	1.92152	1.2973	5.1911	61.03	-0.2126	-0.0262	0.1864	890.9506	0.108748	-412.007748	-412.000383	-411.999439	-412.039412	27.114
N         -0.56550        1.20740        0.23480
C          0.32360        0.09420       -0.13390
C          0.88970       -0.51350        1.10450
C          0.37480       -0.70580        2.35550
N         -0.89160       -0.45480        2.85520
N          1.36060       -1.30490        3.10160
N          2.40110       -1.48310        2.39950
O          2.14800       -0.99200        1.10800
H         -0.01170        2.00650        0.52890
H         -1.10200        1.50310       -0.57400
H         -0.28420       -0.64700       -0.66960
H          1.14990        0.36850       -0.80640
H         -1.35290        0.28280        2.33520
H         -0.89470       -0.29240        3.85300
