14
gdb 4149	3.338	1.54228	1.12623	4.1953	66.16	-0.2657	-0.0185	0.2472	1006.2356	0.106697	-378.679221	-378.671532	-378.670588	-378.71184	27.453
O         -0.11240        1.33990        0.04140
N          0.02520       -0.05030        0.11360
C         -1.09500       -0.62620        0.01570
C         -2.53550       -0.22920       -0.22180
C         -2.85780       -1.73660       -0.46250
C         -1.40480       -2.12190        0.01170
C         -0.61950       -2.98360       -0.85740
N         -0.01510       -3.67070       -1.56340
H          0.80160        1.64040        0.09890
H         -3.01730        0.20110        0.66160
H         -2.69780        0.44880       -1.06280
H         -3.65950       -2.16680        0.13740
H         -3.02290       -1.97820       -1.51240
H         -1.40260       -2.53830        1.02500
