11
gdb 20525	5.11527	1.63667	1.24948	2.7221	53.49	-0.2864	-0.1002	0.1862	874.698	0.07009	-430.674754	-430.667765	-430.666821	-430.706764	23.704
C         -0.03760        1.50010        0.01010
C          0.03750       -0.00700        0.00180
O          1.06450       -0.63870       -0.00970
C         -1.27310       -0.73480        0.00950
N         -2.44760       -0.16600        0.02260
O         -3.33000       -1.16820        0.02500
N         -2.61020       -2.39740        0.01280
N         -1.39510       -2.11720        0.00380
H          0.97330        1.90720        0.00360
H         -0.59490        1.85810       -0.86170
H         -0.58000        1.84910        0.89490
