18
gdb 14422	4.13032	1.82181	1.64377	1.8782	71.23	-0.2251	0.0831	0.3083	874.3057	0.153527	-347.744848	-347.737515	-347.736571	-347.775966	28.591
C          0.04970        1.60180       -0.00220
C          0.07400        0.08130       -0.01560
C          0.78120       -0.68380       -1.13950
C          2.24340       -0.80970       -0.66360
O          2.37050       -0.10650        0.57250
C          1.07130       -0.66400        0.92010
C          1.22920       -1.78940       -0.18210
C          1.10100       -3.27660       -0.19190
H          1.06640        1.99820       -0.05480
H         -0.51930        1.99210       -0.85290
H         -0.42010        1.98060        0.91280
H         -0.92710       -0.33980        0.13010
H          0.49820       -0.77630       -2.18150
H          3.10660       -0.90070       -1.31050
H          0.92010       -0.77060        1.99320
H          0.07770       -3.59610        0.03720
H          1.35550       -3.67640       -1.17950
H          1.77070       -3.74290        0.53940
