16
gdb 13826	4.4897	1.55584	1.1863	1.761	67.54	-0.2257	-0.0555	0.1702	994.9407	0.131167	-379.958248	-379.950345	-379.949401	-379.991105	27.993
C         -0.00190        1.45660        0.09690
C          0.00520       -0.04930        0.15870
O          1.01550       -0.72000        0.19620
C         -1.32770       -0.74100        0.16090
N         -2.44630       -0.14280       -0.03370
C         -3.47520       -1.19910        0.03030
C         -2.70160       -2.54900       -0.01530
N         -1.36380       -2.10110        0.38140
H          1.01650        1.82250       -0.03650
H         -0.65500        1.80080       -0.70890
H         -0.42310        1.85750        1.02530
H         -4.03080       -1.08990        0.97110
H         -4.19480       -1.08820       -0.78510
H         -3.10080       -3.29510        0.67660
H         -2.69960       -2.98260       -1.02560
H         -0.53630       -2.63140        0.15290
