16
gdb 14333	4.6519	1.78459	1.51659	3.9745	64.24	-0.2359	0.0654	0.3014	842.5234	0.133732	-379.962876	-379.956212	-379.955268	-379.993713	25.976
O         -0.23170       -0.07130       -0.12440
C         -0.15290        1.13500       -0.07420
N         -1.11340        2.05080       -0.49670
C         -0.76360        3.39700       -0.11840
C         -1.04310        3.89830        1.33700
C          0.48750        4.10990        1.53610
C          0.75600        3.30570        0.23440
N          0.91470        1.87710        0.41260
H         -2.06730        1.73170       -0.54660
H         -1.02500        4.12490       -0.88980
H         -1.67450        4.78440        1.43040
H         -1.45290        3.10560        1.96690
H          0.78540        5.15720        1.43500
H          0.93030        3.70060        2.44590
H          1.48230        3.72550       -0.46940
H          1.81360        1.42970        0.47470
