12
gdb 3153	4.5324	2.76917	1.98829	2.9514	51.04	-0.2739	-0.0074	0.2665	631.1622	0.091204	-360.503577	-360.497732	-360.496788	-360.533302	21.158
O          0.00830        0.08940       -0.31160
C          0.04940        1.23880       -0.00890
O         -0.96400        2.04200        0.46210
C         -0.10000        3.23210        0.48600
C          1.05650        2.36100        0.01460
C          2.49110        2.26440        0.37060
N          2.07120        2.66500       -0.97830
H         -0.44800        3.98090       -0.22780
H         -0.03580        3.64340        1.49500
H          2.94490        3.05490        0.96120
H          2.89770        1.26880        0.52680
H          2.15670        1.88720       -1.63030
