15
gdb 11105	5.80388	1.15726	1.06515	1.8745	71.46	-0.2533	0.0097	0.2631	1113.0377	0.117007	-362.619302	-362.611101	-362.610157	-362.652453	28.972
C         -0.13960        1.44600        0.32070
N         -0.24680       -0.00660        0.31990
C          0.62530       -0.68780        0.89560
C          0.85950       -2.16630        1.10460
C          2.14330       -1.69380        1.84220
O          1.77060       -0.29610        1.58450
C          2.26460       -1.99970        3.25230
C          2.36590       -2.27400        4.41760
H          0.74000        1.83120        0.84910
H         -0.11280        1.80210       -0.71490
H         -1.03930        1.86920        0.78040
H          0.12350       -2.66310        1.73700
H          1.02510       -2.74760        0.19670
H          3.07240       -1.92360        1.31190
H          2.45750       -2.51020        5.44930
