15
gdb 12436	3.73128	2.05713	1.41364	4.3402	64.12	-0.2563	-0.0223	0.2339	849.4944	0.119956	-399.789745	-399.782719	-399.781774	-399.821539	25.913
N         -0.07430        1.35100        0.14160
C         -0.00870        0.10770       -0.06810
O          1.18270       -0.56030       -0.11080
C          1.45630       -1.58700       -1.07990
C          0.69790       -2.87020       -0.86840
C         -0.63170       -2.88390       -0.86760
C         -1.41490       -1.61280       -1.06630
O         -1.15790       -0.60430       -0.07890
H          0.87010        1.72720        0.21250
H          1.26580       -1.18730       -2.08720
H          2.53190       -1.74920       -0.99190
H          1.27110       -3.77800       -0.70690
H         -1.18530       -3.80360       -0.70490
H         -1.23160       -1.19470       -2.06730
H         -2.48730       -1.79570       -0.98210
