19
gdb 13194	5.42064	1.09924	1.07428	3.3261	73.83	-0.2411	0.031	0.2722	1193.1282	0.166055	-365.088732	-365.079944	-365.079	-365.12325	31.06
C          0.25160        1.43970       -0.39700
N          0.03800        0.02010       -0.19740
C         -1.08140       -0.48110        0.40250
O         -1.98570        0.22820        0.81590
C         -1.13690       -1.99130        0.52740
C         -1.46680       -2.55350        1.94410
C         -2.43510       -3.57110        1.28740
C         -2.44280       -2.67680        0.02070
H          0.34720        1.68500       -1.46090
H         -0.61800        1.95600        0.01130
H          1.15150        1.78660        0.12350
H          0.74200       -0.62510       -0.51360
H         -0.24670       -2.47020        0.10640
H         -0.63430       -2.93920        2.53710
H         -2.00430       -1.79680        2.52020
H         -1.95150       -4.53520        1.10380
H         -3.39100       -3.75200        1.78400
H         -3.26330       -1.95590        0.03910
H         -2.40720       -3.16310       -0.95690
