14
gdb 12610	3.24434	2.26439	1.35712	2.0122	59.17	-0.2628	-0.0066	0.2562	846.8964	0.108388	-415.950929	-415.943269	-415.942324	-415.983455	26.524
C         -0.03470        1.46510        0.03250
N         -0.00570        0.01630        0.01610
C         -1.12440       -0.78510        0.05700
O         -2.27140       -0.41470        0.11730
C         -0.61130       -2.22940        0.00590
N          0.82400       -2.04750        0.01970
C          1.19230       -0.72860       -0.05400
O          2.30340       -0.26650       -0.15040
H          0.99200        1.81220       -0.08730
H         -0.65690        1.83970       -0.78410
H         -0.44420        1.83200        0.97780
H         -0.98410       -2.78870        0.87070
H         -0.98100       -2.71740       -0.90400
H          1.49430       -2.76350       -0.20080
