13
gdb 1876	5.93197	2.23861	1.73449	5.2552	50.06	-0.2898	0.0421	0.3319	700.9639	0.102611	-381.648857	-381.642579	-381.641635	-381.679327	22.184
C         -0.08870        1.55200        0.00730
C          0.09870        0.04770        0.02520
C          0.85430       -0.53650       -1.18070
O          1.70610       -1.52450       -0.59970
C          1.79900       -1.31550        0.74080
O          2.52960       -1.90670        1.46820
O          0.94010       -0.33800        1.12650
H          0.87630        2.05870       -0.08550
H         -0.71930        1.84110       -0.83980
H         -0.57350        1.89110        0.92590
H         -0.86630       -0.45690        0.15810
H          0.20100       -1.01590       -1.91200
H          1.46960        0.21870       -1.68410
