18
gdb 9630	3.34016	1.37336	1.18855	4.292	70.26	-0.2402	-0.013	0.2272	1078.7963	0.150674	-384.929817	-384.920762	-384.919818	-384.963517	32.283
C          0.18910        1.29350        0.22670
O         -0.24070        0.03380       -0.25760
C          0.56820       -0.51560       -1.26090
C          0.44580        0.14310       -2.61820
C          1.85720       -1.13510       -0.82640
C          0.67080       -2.03070       -1.20730
C         -0.00550       -2.79260       -0.12930
O         -0.47520       -3.89450       -0.28010
H          1.22730        1.25800        0.58530
H          0.10910        2.08040       -0.53510
H         -0.46800        1.54800        1.06110
H          0.80690        1.17650       -2.59460
H          1.03470       -0.39580       -3.36510
H         -0.59970        0.15140       -2.94070
H          2.71290       -1.13040       -1.49210
H          2.09820       -1.08950        0.23070
H          0.71580       -2.55490       -2.15570
H         -0.04510       -2.27360        0.85100
