16
gdb 9606	5.21618	1.20982	1.11474	1.5164	67.7	-0.2591	0.0157	0.2747	1069.5747	0.127278	-383.682708	-383.673931	-383.672986	-383.715913	31.884
C         -0.26430        1.64310        0.10980
C         -0.19620        0.13580        0.11420
C         -1.38080       -0.59150       -0.49740
O         -1.48080       -0.31840       -1.88380
O          1.05960       -0.43650       -0.29630
C          0.65660       -0.60160        1.07720
C          1.44130        0.05770        2.08580
C          2.08740        0.57980        2.95480
H          0.67390        2.07650        0.45800
H         -0.47200        1.99380       -0.90480
H         -1.07480        1.98920        0.76000
H         -1.28780       -1.67080       -0.30590
H         -2.31670       -0.24570       -0.04600
H         -0.65180       -0.60930       -2.28170
H          0.36640       -1.62250        1.32720
H          2.66250        1.04530        3.71690
