14
gdb 2188	4.07184	2.54646	1.81395	2.7306	54.2	-0.2494	0.0209	0.2703	701.4617	0.112759	-361.731388	-361.724011	-361.723067	-361.762805	26.068
C          0.00580        1.55480        0.00330
C         -0.00600        0.03600        0.04020
N          1.02640       -0.62890       -0.78220
C          1.75850       -1.11720        0.26530
O          2.83220       -1.65350        0.36240
C          0.68860       -0.63420        1.27650
O          1.14820        0.23820        2.27450
H          0.99450        1.94280        0.25730
H         -0.27520        1.92000       -0.99000
H         -0.71160        1.95410        0.72650
H         -1.00990       -0.35370       -0.16010
H          1.24310       -0.56220       -1.76690
H          0.09610       -1.45640        1.69930
H          2.04590       -0.03380        2.49850
