13
gdb 23914	2.95656	1.91707	1.66082	1.808	46.82	-0.2793	0.0728	0.3521	796.3765	0.090871	-530.092821	-530.085375	-530.08443	-530.12469	27.639
O         -0.18370        1.34550       -0.23750
C         -0.05140       -0.02010        0.00150
C         -0.40500       -0.58390        1.35480
C         -1.31740       -0.79640        0.16480
C          1.09550       -0.63240       -0.76530
F          2.24890       -0.00830       -0.44860
F          1.24800       -1.93570       -0.48460
F          0.93640       -0.51580       -2.08720
H          0.60170        1.78330        0.11210
H          0.15640       -1.43080        1.72990
H         -0.71300        0.14190        2.09820
H         -2.22980       -0.21460        0.11570
H         -1.37280       -1.78750       -0.26930
