10
gdb 1034	8.6338	2.03384	1.64608	4.2594	50.43	-0.2599	-0.0583	0.2016	670.2078	0.067869	-359.346839	-359.341418	-359.340474	-359.376316	18.797
O         -0.06160       -0.02880       -0.00050
C          0.01150        1.17480        0.00830
C          1.25920        1.94740        0.00090
C          1.37940        3.30550        0.01030
O          2.69670        3.61740       -0.00120
C          3.32560        2.40620       -0.01780
N          2.53870        1.38940       -0.01730
H         -0.89960        1.81450        0.02310
H          0.68290        4.12700        0.02430
H          4.40400        2.42810       -0.02920
