14
gdb 865	6.51354	2.06991	1.58627	0.8444	60.4	-0.1738	0.0626	0.2364	755.0624	0.113974	-324.615795	-324.608802	-324.607858	-324.646355	25.805
C         -0.05740        1.49600        0.06360
C         -0.00700        0.00990       -0.05000
C         -0.03900       -0.82390       -1.13840
C          0.03980       -2.17940       -0.67970
C          0.11750       -2.11440        0.68830
O          0.21100       -3.05060        1.66970
N          0.08990       -0.80390        1.07160
H          0.83960        1.91120        0.54200
H         -0.13120        1.93790       -0.93300
H         -0.92320        1.84380        0.64270
H         -0.11160       -0.50240       -2.16670
H          0.03900       -3.07620       -1.27960
H          0.21910       -3.91800        1.25460
H          0.13420       -0.49720        2.02800
