12
gdb 2617	12.11759	1.01216	0.94698	4.2784	56.06	-0.2796	-0.0138	0.2658	1098.8922	0.090318	-319.560814	-319.553465	-319.55252	-319.592953	24.182
N         -0.01920       -1.15720       -0.00050
C         -0.01010       -0.00270       -0.00840
C         -0.00510        1.46120        0.01250
N          1.35870        1.97730       -0.05770
C          1.38980        3.43510        0.01130
C          2.76820        3.92840       -0.01090
N          3.85320        4.32290       -0.00430
H         -0.56350        1.82230       -0.86060
H         -0.56710        1.79240        0.90490
H          1.92230        1.57940        0.68650
H          0.86240        3.84020       -0.86170
H          0.89070        3.85500        0.90380
