14
gdb 15277	4.90256	1.137	0.99332	4.3567	68.83	-0.2668	0.0149	0.2816	1118.9083	0.106441	-341.53481	-341.526905	-341.525961	-341.567727	28.293
C         -0.10970       -1.21960        0.19460
C         -0.04710       -0.02010        0.14670
C          0.01950        1.41240        0.04780
N          0.67720        2.15020        1.15290
C          1.30990        2.14400       -0.16060
C          2.62690        1.39370       -0.26670
C          3.76350        2.23740        0.10070
N          4.65120        2.92200        0.38000
H         -0.16910       -2.27870        0.25120
H         -0.85500        1.87320       -0.40680
H          0.19320        3.02740        1.32420
H          1.25360        3.04680       -0.76500
H          2.59730        0.51770        0.38720
H          2.77210        1.03340       -1.29170
