16
gdb 14937	4.54849	1.53085	1.18976	2.7106	66.43	-0.2536	-0.0287	0.2249	972.281	0.130205	-383.750499	-383.743112	-383.742168	-383.782645	26.944
O         -0.88180        1.08420        0.23580
C          0.25450        0.73720        0.04730
C          1.44140        1.68650        0.04000
C          1.29850        2.85260        1.02250
C          2.62240        3.55520        1.16290
C          3.75740        2.99920        0.74650
C          3.80080        1.61850        0.15320
O          2.58750        0.90310        0.31660
H          0.53200       -0.32120       -0.15180
H          1.50690        2.09480       -0.98770
H          0.52290        3.53650        0.66220
H          0.94660        2.48160        1.99410
H          2.62430        4.54390        1.61320
H          4.70600        3.52400        0.82010
H          4.07100        1.67330       -0.91770
H          4.57310        1.01320        0.64210
