13
gdb 9457	2.93586	1.82097	1.71453	5.3542	60.48	-0.2608	-0.0093	0.2515	824.4035	0.095346	-394.771352	-394.763702	-394.762758	-394.803276	27.553
O          0.21050        1.40520        0.11550
C          0.04950        0.01640        0.04800
C         -1.44040       -0.43440       -0.11170
N         -1.03580       -1.08610       -1.36970
C          0.24260       -0.56440       -1.37220
N          1.23090       -0.43440       -2.14290
C          0.78740       -0.68260        1.10940
N          1.36810       -1.22690        1.94690
H          1.02500        1.61450       -0.36190
H         -1.82870       -1.11750        0.64610
H         -2.09340        0.43460       -0.23010
H         -1.61670       -1.29980       -2.16720
H          1.06960       -0.81460       -3.07570
