10
gdb 23797	4.18513	1.89398	1.3039	0.9918	54.51	-0.2693	-0.1097	0.1596	807.8146	0.05902	-454.691967	-454.68582	-454.684875	-454.722557	22.446
F          0.02780        0.06930        0.02230
C         -0.07120        1.37930        0.04230
C         -1.22210        2.03970       -0.10830
C         -1.17970        3.48690       -0.06410
N         -2.19980        4.22300       -0.19360
O          0.08900        4.03010        0.13530
N          1.25990        3.22950        0.28520
N          1.15680        2.00060        0.23780
H         -2.17310        1.54820       -0.26000
H         -1.95570        5.21190       -0.13200
