17
gdb 15374	4.63995	1.0245	0.92361	1.9313	67.5	-0.2569	0.0191	0.276	1251.2243	0.140755	-400.966494	-400.957641	-400.956697	-401.001091	30.653
O          0.01900        1.13950       -0.76130
C         -0.01980        0.06120        0.16510
C         -1.40350       -0.53380        0.11420
C         -1.75930       -1.51450       -0.98420
C         -1.62890       -1.97760        0.44280
O         -0.49800       -2.72550        0.82710
C         -0.51190       -4.03370        0.48630
N          0.43930       -4.78260        0.83990
H          0.88530        1.55250       -0.69620
H          0.72510       -0.70870       -0.07640
H          0.19080        0.40910        1.18860
H         -2.18830        0.14730        0.42920
H         -2.74530       -1.47640       -1.43320
H         -0.95870       -1.79000       -1.66230
H         -2.52680       -2.24440        0.99530
H         -1.39640       -4.32050       -0.09700
H          0.27790       -5.72930        0.50210
