18
gdb 11418	5.67667	1.1698	1.01451	4.5866	67.69	-0.2619	0.0166	0.2785	1153.4712	0.154626	-384.997383	-384.989478	-384.988534	-385.029961	29.007
C          0.01070        1.59360        0.01710
C          0.07100        0.06330       -0.03920
C          0.69060       -0.57390        1.20630
C         -0.10430       -0.34000        2.50630
O          0.21620       -1.43790        3.37420
C          0.70670       -2.49320        2.66330
O          1.00470       -3.52870        3.18130
C          0.78010       -2.10440        1.19070
H          1.01010        2.02440        0.14310
H         -0.41420        2.00350       -0.90370
H         -0.60910        1.94490        0.84900
H         -0.93970       -0.34310       -0.18130
H          0.64960       -0.24610       -0.91800
H          1.70040       -0.16790        1.34950
H          0.15750        0.58260        3.02790
H         -1.18670       -0.34200        2.31930
H         -0.08290       -2.55170        0.68020
H          1.68150       -2.51300        0.73240
