15
gdb 3258	3.68971	3.68083	2.01651	0.2872	70.89	-0.214	-0.029	0.185	652.0585	0.127757	-271.401725	-271.395977	-271.395033	-271.430862	22.895
C         -0.03600        1.51070       -0.05620
C          1.38380        2.01780       -0.02560
C          2.18070        1.84200        1.04580
C          1.87100        1.02940        2.19850
C          1.10080       -0.09250        2.19980
C          0.45240       -0.67530        1.04860
C          0.00100        0.00360       -0.02330
H         -0.57740        1.88340        0.82470
H         -0.56130        1.87030       -0.94400
H          1.76050        2.55250       -0.89330
H          3.15490        2.32700        1.05140
H          2.40460        1.26850        3.11580
H          1.07030       -0.67510        3.11800
H          0.34990       -1.75880        1.05600
H         -0.36360       -0.54140       -0.88980
