14
gdb 1208	8.24003	1.18295	1.05444	3.8066	58.65	-0.2662	-0.0306	0.2356	1043.3686	0.111245	-324.619773	-324.611667	-324.610723	-324.653631	26.728
C         -0.00500        1.51100       -0.02060
C         -0.02050       -0.00210        0.06480
O         -0.07020       -0.59290        1.11880
C          0.03040       -0.75310       -1.26250
C          0.00950       -2.27560       -1.05910
C          0.05810       -2.99930       -2.32630
N          0.09700       -3.55630       -3.33800
H          0.90000        1.85500       -0.53380
H         -0.85770        1.86880       -0.60860
H         -0.04440        1.93830        0.98160
H         -0.81390       -0.43210       -1.88490
H          0.92980       -0.44600       -1.81020
H          0.85480       -2.58120       -0.43510
H         -0.89070       -2.56730       -0.50980
