12
gdb 1947	9.18247	1.61359	1.40562	2.2008	53.31	-0.2609	-0.0482	0.2127	787.1285	0.089185	-360.530885	-360.524349	-360.523405	-360.562089	22.315
O          0.01890       -0.01830        0.23760
C          0.04360        1.19330        0.21820
N          1.17760        1.92850        0.10750
C          2.52130        1.45470       -0.24920
C          2.84790        2.92290       -0.59390
O          3.81170        3.50540       -0.97730
C          1.40060        3.34210       -0.22990
H         -0.85970        1.82980        0.30570
H          3.09750        1.02870        0.57920
H          2.54410        0.75890       -1.09590
H          0.81350        3.72150       -1.07490
H          1.32500        4.04160        0.61040
