17
gdb 10806	4.86867	1.47278	1.1728	3.2985	72.69	-0.209	0.0008	0.2098	1012.6748	0.14369	-363.924897	-363.917307	-363.916362	-363.956664	28.741
C          0.02150        1.54990        0.03390
C         -0.02210        0.05140       -0.00350
C         -0.04840       -0.64190       -1.14530
N         -0.07000       -2.04430       -1.17950
C         -0.31270       -2.84990       -0.08920
O         -0.27240       -4.06120       -0.16200
C         -0.69360       -2.07820        1.16760
C          0.01280       -0.71890        1.29760
H          0.90890        1.90760        0.57350
H          0.04590        1.97960       -0.97180
H         -0.84860        1.96730        0.55770
H         -0.04390       -0.16720       -2.12020
H          0.10520       -2.52880       -2.04650
H         -1.77930       -1.91930        1.11030
H         -0.50850       -2.72730        2.02520
H          1.05900       -0.86650        1.60690
H         -0.45560       -0.13900        2.10060
