18
gdb 19862	3.70489	2.18372	1.92892	1.5767	69.35	-0.2357	0.0811	0.3168	778.3208	0.15675	-347.773873	-347.767489	-347.766545	-347.804432	25.531
C         -0.07440        1.46260       -0.23680
C          1.25720        0.82220        0.02300
C         -0.02810       -0.02200       -0.01060
C          0.51250       -0.77970       -1.23860
O         -0.12070       -0.64050       -2.49280
C          0.47440        0.41960       -3.24340
C          1.84060        0.77290       -2.59440
C          1.79990        0.08840       -1.21940
H         -0.47540        2.02790        0.59890
H         -0.33130        1.88520       -1.20220
H          1.85990        1.09390        0.88090
H         -0.56020       -0.48460        0.81190
H          0.65290       -1.84570       -1.03840
H          0.58430        0.07360       -4.27750
H         -0.19620        1.28920       -3.26070
H          2.66250        0.37260       -3.19420
H          1.98070        1.85490       -2.52340
H          2.70950       -0.47330       -1.00310
