13
gdb 16092	4.6565	1.81466	1.54393	3.4698	62.88	-0.2719	-0.0269	0.245	796.2708	0.097488	-357.632018	-357.625773	-357.624828	-357.662361	23.524
N         -0.01020       -1.12640       -0.02630
C          0.01620        0.02920       -0.01790
C         -0.01640        1.46770       -0.00160
C          0.41620        2.24360       -1.19840
N          1.28830        2.19730       -0.00310
C          1.00130        3.29490        0.87650
N         -0.12460        3.35040        1.45820
C         -0.90740        2.18270        1.03110
H          0.80460        1.71470       -2.06190
H         -0.10840        3.17310       -1.40450
H          1.78620        4.03130        1.01800
H         -1.87240        2.50200        0.62600
H         -1.10680        1.53400        1.88970
