20
gdb 12024	3.85127	1.24245	1.18111	1.3308	76.15	-0.2446	0.0779	0.3225	1129.5769	0.175566	-348.976734	-348.967993	-348.967049	-349.009895	33.393
C         -0.11040        1.56810       -0.08680
C          0.00110        0.06440        0.02080
O         -1.16760       -0.61710       -0.37140
C          1.31580       -0.63680       -0.24010
C          0.71470       -0.61150        1.15780
C          1.36940        0.12630        2.28140
C          0.71790        0.17400        3.64300
C          1.97170       -0.63900        3.43540
H          0.79910        2.07090        0.25130
H         -0.28190        1.86610       -1.12890
H         -0.95120        1.93390        0.51110
H         -1.27550       -0.49000       -1.32100
H          1.28470       -1.57270       -0.78700
H          2.19670       -0.02840       -0.42310
H          0.23650       -1.54100        1.45720
H          1.91020        1.02120        1.98660
H          0.78580        1.09150        4.21720
H         -0.21740       -0.36090        3.77100
H          1.87970       -1.72020        3.42490
H          2.89910       -0.27810        3.86650
