19
gdb 7613	3.17318	1.65687	1.32287	2.7922	72.74	-0.2278	-0.0107	0.2171	1007.9414	0.162185	-365.058083	-365.048577	-365.047633	-365.092496	33.835
C         -0.22430        1.63690        0.29740
N         -0.22730        0.19240        0.47990
C          0.81480       -0.58690       -0.14910
C          0.77630       -0.44050        1.35290
C          1.87320        0.34790        2.04220
C          0.24790       -1.60110        2.17300
C         -1.07630       -2.21950        1.77150
O          0.87660       -2.00330        3.12850
H          0.77390        2.07810        0.16380
H         -0.81880        1.87170       -0.59100
H         -0.70090        2.11300        1.15960
H          0.50850       -1.50850       -0.63820
H          1.62790       -0.05970       -0.64860
H          2.34860        1.06600        1.37200
H          1.48190        0.88760        2.91080
H          2.63370       -0.34330        2.41000
H         -1.06900       -2.55090        0.72870
H         -1.28280       -3.06580        2.42740
H         -1.87150       -1.47270        1.84770
