16
gdb 19496	3.37843	1.97368	1.79253	1.915	70.1	-0.2409	0.0494	0.2904	810.927	0.13114	-346.558255	-346.551216	-346.550272	-346.589385	27.007
C         -0.16720       -1.24400       -0.13090
C         -0.05930       -0.04950       -0.04030
C          0.01920        1.38070        0.03330
C          0.49320        2.12750        1.27390
C          1.28730        1.33880        2.29690
O          2.30460        0.65700        1.57230
C          2.59180        1.36630        0.37260
C          1.33710        2.14520        0.02910
H         -0.24600       -2.30040       -0.20020
H         -0.77870        1.89080       -0.50040
H         -0.07510        2.98960        1.60200
H          1.71650        2.03060        3.03990
H          0.70300        0.57910        2.82660
H          3.43170        2.06670        0.50990
H          2.87750        0.62490       -0.38090
H          1.42000        3.02110       -0.60340
