18
gdb 18170	3.61237	1.53213	1.34265	1.3874	67.48	-0.2466	0.0746	0.3212	970.7585	0.153756	-384.894454	-384.886389	-384.885445	-384.92679	30.375
O         -0.14780        1.52360       -0.06530
C          0.04520        0.12310        0.11620
C         -1.31300       -0.53720       -0.03480
C         -1.97230       -0.65390       -1.44630
C         -2.17610       -2.15820       -1.21670
C         -0.86360       -2.83880       -0.98730
O          0.32980       -2.44490       -1.61110
C         -1.43590       -2.05710        0.14780
H          0.71730        1.94230       -0.08640
H          0.74620       -0.28770       -0.61920
H          0.44520       -0.09540        1.12110
H         -2.00820       -0.03020        0.64170
H         -2.90530       -0.09440       -1.52540
H         -1.33250       -0.39150       -2.29390
H         -3.07200       -2.71490       -1.46740
H         -0.94730       -3.91730       -0.84380
H          0.25070       -2.64360       -2.55030
H         -1.66720       -2.54150        1.09020
