16
gdb 8735	3.83735	1.28874	1.17296	1.7077	72.47	-0.2575	0.0252	0.2827	1059.8773	0.126477	-346.529286	-346.519931	-346.518986	-346.562937	33.978
C          0.07290        1.58900        0.02250
C          0.01060        0.05100        0.05180
C          0.73780       -0.49250        1.19550
C          1.33740       -0.93850        2.13680
C         -1.46250       -0.47580        0.05210
O         -2.20370       -0.00320        1.16610
C         -2.12870       -0.16740       -1.21680
C         -2.67720        0.12200       -2.24700
H          1.11020        1.92700       -0.02760
H         -0.46270        1.97530       -0.84940
H         -0.36980        2.00690        0.93090
H          0.47120       -0.33410       -0.86760
H          1.86650       -1.33440        2.96790
H         -1.42000       -1.56310        0.17780
H         -2.49690        0.89250        0.96770
H         -3.17020        0.35740       -3.15810
