17
gdb 2678	11.15078	0.82956	0.81874	0.9218	71.03	-0.2421	0.0417	0.2839	1447.2583	0.145974	-309.680641	-309.671565	-309.67062	-309.716034	29.903
C          0.43790        1.39810        0.26260
C         -0.30140        0.14410       -0.23820
C          0.31790       -0.46020       -1.41260
C          0.84940       -0.94760       -2.37650
C          1.46980       -1.52590       -3.56010
O          2.35650       -2.56680       -3.19210
C          2.97520       -3.15270       -4.31260
H          1.46920        1.15750        0.53390
H          0.46450        2.16900       -0.51240
H         -0.06390        1.81120        1.14280
H         -0.34710       -0.60160        0.56580
H         -1.34390        0.39880       -0.46910
H          0.69110       -1.91220       -4.24170
H          2.01260       -0.74380       -4.12030
H          2.24010       -3.60150       -5.00030
H          3.57230       -2.42170       -4.88170
H          3.63790       -3.93830       -3.94270
