17
gdb 18770	3.93906	2.48873	2.15229	1.4556	70.5	-0.2155	0.0859	0.3014	719.0739	0.143696	-326.635755	-326.629708	-326.628764	-326.665438	25.121
C          0.00680        1.42340       -0.00350
C         -0.00020       -0.06980       -0.00640
C         -0.97840       -0.97530        0.75250
C          0.52690       -1.08300        0.97050
C          0.53140       -2.04170       -0.23810
C         -1.03220       -2.15410       -0.24870
C         -0.98380       -1.49610       -1.63950
N          0.33290       -0.87760       -1.23000
H          0.98510        1.81240       -0.30310
H         -0.74180        1.82130       -0.69880
H         -0.22600        1.80890        0.99470
H         -1.74280       -0.60220        1.42090
H          1.14360       -0.98370        1.85360
H          1.24170       -2.82720       -0.48940
H         -1.60240       -3.04850        0.00230
H         -0.81100       -2.20880       -2.45200
H         -1.76660       -0.78550       -1.92400
