13
gdb 5480	3.44633	1.94598	1.24371	4.3172	66.	-0.2161	-0.0344	0.1817	889.707	0.096795	-398.651701	-398.644787	-398.643842	-398.682763	25.712
O          0.11130        1.38830       -0.04530
C          0.07560        0.03560        0.00920
C          0.02390       -0.77540       -1.12650
N          0.00000       -2.08200       -0.66950
C          0.03380       -2.10650        0.67950
C          0.08200       -0.80050        1.14760
C         -0.00470       -0.49110       -2.53430
O         -0.05050       -1.35970       -3.39250
H          0.14430        1.73720        0.85080
H         -0.03770       -2.86030       -1.30740
H          0.02230       -3.03590        1.22700
H          0.11720       -0.49460        2.18230
H          0.01830        0.58550       -2.79510
