13
gdb 17426	3.27133	2.68461	1.85662	1.2406	57.51	-0.2427	-0.0147	0.228	702.5719	0.095601	-398.54115	-398.535008	-398.534064	-398.571165	24.047
O          0.08190        1.45780       -0.04560
C         -0.02900        0.10100       -0.07380
C          0.41320       -0.76130       -1.25290
N         -0.52100       -1.85250       -0.77180
C         -0.42090       -1.87660        0.72470
C         -1.31040       -0.89220       -0.00730
C          0.40860       -0.71240        1.15080
O          0.93960       -0.34660        2.16590
H          0.33720        1.70890        0.85480
H          0.04290       -0.41350       -2.21940
H          1.47080       -1.03830       -1.32280
H         -0.68240       -2.79050        1.23850
H         -2.38630       -0.78810        0.01560
