17
gdb 20234	4.13384	2.65302	2.26122	1.6613	69.09	-0.2194	0.0838	0.3032	682.8315	0.14611	-326.666831	-326.661418	-326.660474	-326.696026	23.084
C         -0.04420        1.58310       -0.00620
C          1.44550        2.04260       -0.00540
C          2.21580        0.72470        0.05420
C          2.09700       -0.09310        1.33690
C          0.61920       -0.54890        1.33610
C          1.65400       -1.27900        0.53660
N          1.36460       -0.33840       -0.64110
C          0.06170        0.06030        0.05300
H         -0.61040        1.97500        0.84360
H         -0.55650        1.90480       -0.91770
H          1.68850        2.59720       -0.91650
H          1.69160        2.68510        0.84490
H          3.22410        0.75240       -0.36400
H          2.68080       -0.06100        2.24870
H          0.11790       -0.85150        2.24730
H          1.97180       -2.30910        0.46810
H         -0.78660       -0.48470       -0.36620
