16
gdb 19596	4.27853	2.01546	1.8705	3.7461	63.07	-0.2382	0.0727	0.3109	753.9396	0.134114	-379.838723	-379.832953	-379.832009	-379.868205	24.645
O          0.13180        1.40200       -0.09040
C          0.10090        0.00580       -0.08010
C          0.17120       -0.64160        1.34130
N         -1.27000       -0.18630        1.46080
C         -1.32980       -0.61830        0.00880
C         -1.06660       -2.13770        0.08090
N          0.29300       -2.55810       -0.34130
C          0.04210       -2.15490        1.06510
H         -0.48150        1.67890        0.60520
H          0.77550       -0.36050       -0.84630
H          0.86980       -0.30000        2.10520
H         -1.82680       -0.78070        2.07770
H         -2.16500       -0.25290       -0.58890
H         -1.88200       -2.85250        0.06740
H          0.31790       -3.57580       -0.38710
H          0.13950       -2.88390        1.86200
