15
gdb 10244	2.67771	1.95271	1.20948	2.7901	66.61	-0.2625	-0.0269	0.2356	968.9898	0.118482	-396.011151	-396.002837	-396.001893	-396.044313	29.039
C          0.04920        1.43470       -0.17550
C         -0.24350       -0.04180       -0.11690
N         -0.69240       -0.68400        0.88360
N          0.07350       -0.82070       -1.27470
C         -0.07720       -0.38510       -2.59650
N         -0.59660        0.73000       -2.90790
C          0.52540       -2.14130       -1.08070
O          0.77650       -2.90340       -1.97970
H          1.03790        1.62190       -0.60430
H         -0.67130        1.94300       -0.81760
H          0.00830        1.84910        0.83440
H         -0.80800       -0.06100        1.68210
H          0.29030       -1.14620       -3.28590
H         -0.60720        0.83240       -3.92120
H          0.62970       -2.37460       -0.01400
