20
gdb 16946	3.53891	1.95433	1.79709	0.2969	79.23	-0.2212	0.0317	0.2529	866.0691	0.180283	-311.892228	-311.885361	-311.884417	-311.922813	28.227
C         -0.01140        1.49390        0.04840
C         -0.06930        0.00370       -0.01730
C         -0.08240       -0.79990       -1.08880
C          0.00680       -2.23800       -0.60210
C          1.45900       -2.42980       -0.04610
C          1.47080       -1.49730        1.20480
C          0.02210       -0.90250        1.20890
C         -0.78740       -2.12470        0.72050
H          0.90680        1.83580        0.54470
H         -0.04140        1.94270       -0.94870
H         -0.84690        1.90240        0.63150
H         -0.03800       -0.49540       -2.12830
H         -0.30760       -3.00690       -1.30900
H          1.63040       -3.47370        0.23530
H          2.21600       -2.15860       -0.78560
H          1.65470       -2.06490        2.12220
H          2.23180       -0.71490        1.14500
H         -0.27330       -0.44960        2.15730
H         -1.84500       -1.89930        0.56280
H         -0.68820       -3.00270        1.36890
