12
gdb 4894	5.21605	1.52316	1.22107	4.4409	52.73	-0.2339	0.0217	0.2556	917.4141	0.083119	-455.645111	-455.638102	-455.637158	-455.677036	24.403
C         -0.04410        1.39190       -0.06960
O          0.48710        0.07010        0.13910
C          0.78970       -0.61060       -0.95500
C          0.53980       -1.86290       -1.33000
O          1.20140       -2.09490       -2.53380
C          1.83080       -0.94380       -2.89020
O          2.47570       -0.76510       -3.87120
O          1.59070       -0.00550       -1.91150
H          0.67660        2.01910       -0.59970
H         -0.98100        1.34030       -0.63440
H         -0.23020        1.79500        0.92540
H         -0.01610       -2.67090       -0.89400
