17
gdb 8445	4.03063	1.94113	1.65569	3.2636	69.85	-0.2524	0.0341	0.2865	834.5278	0.143726	-363.867087	-363.860373	-363.859428	-363.897544	27.101
C         -0.11220        1.49420        0.00570
C          0.07920        0.00620        0.03510
C          1.00390       -0.80800       -0.90710
C          0.65270       -1.93800        0.12220
C          0.68540       -0.80720        1.20840
C         -0.83630       -2.00890       -0.10190
N         -1.58730       -3.01330       -0.21460
O         -1.20690       -0.68090       -0.15820
H          0.84640        2.00060        0.14970
H         -0.53160        1.81020       -0.95410
H         -0.79550        1.81090        0.79930
H          0.68070       -0.93220       -1.94300
H          2.04990       -0.50080       -0.85270
H          1.19080       -2.87740        0.20360
H          1.70110       -0.49980        1.46410
H          0.07160       -0.93060        2.10330
H         -2.55600       -2.72110       -0.36050
