14
gdb 11387	4.56923	1.5563	1.23156	3.9421	60.23	-0.2728	-0.0534	0.2194	944.5938	0.107045	-419.713954	-419.70676	-419.705815	-419.745814	25.668
C         -0.03070        1.38210       -0.11130
O         -0.01190       -0.03570        0.00570
C         -1.26790       -0.61440        0.00560
O         -1.91880       -0.48800       -1.26780
C         -2.17680       -1.73380       -1.78980
O         -2.71550       -1.89520       -2.84520
C         -1.68180       -2.73920       -0.81040
C         -1.15090       -2.10140        0.22640
H          1.00470        1.71600       -0.02730
H         -0.44040        1.69510       -1.07740
H         -0.62430        1.83640        0.69520
H         -1.92610       -0.12140        0.74040
H         -1.76430       -3.80060       -0.99160
H         -0.67920       -2.51260        1.10830
