18
gdb 4115	3.48133	1.45652	1.0909	0.8087	73.52	-0.2194	0.0069	0.2263	1099.934	0.151713	-381.054664	-381.045833	-381.044889	-381.087832	32.099
C          0.02120        1.58260       -0.01630
C          0.07150        0.06540        0.06420
N          0.67860       -0.63420       -1.10660
C         -0.21330       -1.28080       -2.04390
C          1.51080       -1.50170       -0.23560
C          1.13000       -0.60290        0.91750
N          1.51200       -0.37790        2.09960
O          2.56400       -1.24020        2.46370
H          1.00930        1.98450       -0.25360
H         -0.68010        1.90410       -0.79340
H         -0.31010        2.00270        0.93830
H         -0.92920       -0.33510        0.30770
H         -0.83570       -0.53020       -2.54180
H          0.36840       -1.79500       -2.81610
H         -0.88420       -2.02340       -1.57000
H          1.12450       -2.52740       -0.11340
H          2.57080       -1.55550       -0.50490
H          2.76170       -0.95130        3.36100
