11
gdb 4321	4.17518	2.06519	1.38174	5.1669	55.77	-0.2698	-0.0552	0.2146	795.1626	0.073931	-430.795971	-430.789503	-430.788559	-430.826698	23.541
N          0.01890        1.31900        0.00790
C         -0.01330       -0.02080        0.00100
N         -1.18070       -0.62640        0.00420
C         -1.22070       -1.97430       -0.00270
O         -2.15320       -2.71240       -0.00180
O          0.09930       -2.65000       -0.01360
C          1.18230       -1.90690       -0.01570
N          1.23550       -0.62100       -0.00910
H          0.90550        1.79110        0.00550
H         -0.84520        1.83300        0.01540
H          2.10030       -2.49290       -0.02380
