17
gdb 17192	5.14152	1.59341	1.43372	2.6462	69.28	-0.237	0.078	0.3149	913.1917	0.141998	-363.753282	-363.746276	-363.745332	-363.784078	27.694
C         -0.06910        1.57740        0.01450
C         -0.02540        0.06130        0.02180
C          1.20460       -0.65660       -0.61370
O          2.04040       -0.17450        0.51490
C          0.78170       -0.66170        1.14240
C          0.87150       -1.89310        0.23190
C          0.14430       -3.15010        0.00720
N          1.56850       -3.12710        0.45410
H          0.91380        1.98910        0.25150
H         -0.37950        1.95300       -0.96650
H         -0.79060        1.94780        0.75050
H         -0.99320       -0.39390       -0.21310
H          1.61890       -0.57800       -1.62030
H          0.69820       -0.59350        2.22670
H         -0.55310       -3.53550        0.74590
H         -0.07610       -3.43980       -1.01770
H          2.19560       -3.34540       -0.31620
