18
gdb 9902	4.91131	0.90577	0.81828	2.027	78.36	-0.2436	0.0358	0.2795	1446.7985	0.151258	-347.764641	-347.755334	-347.75439	-347.799685	32.709
C         -0.31640        1.50240       -0.08010
C          0.27390        0.09030        0.08700
C          0.89110       -0.42010       -1.13230
C          1.39500       -0.83660       -2.14460
C          1.99030       -1.29810       -3.37760
C          1.96670       -0.31630       -4.53130
C          3.02120       -2.35630       -3.32780
O          1.69370       -2.66440       -3.73880
H          0.46010        2.21700       -0.36600
H         -1.08640        1.51220       -0.85610
H         -0.76690        1.83970        0.85800
H          1.01500        0.09500        0.89670
H         -0.51550       -0.60240        0.40580
H          2.50650        0.59850       -4.26860
H          2.42870       -0.76290       -5.41520
H          0.93590       -0.04370       -4.77570
H          3.77920       -2.39220       -4.11040
H          3.32210       -2.76320       -2.36410
