14
gdb 8792	3.59741	1.35038	1.10117	1.9917	59.47	-0.2469	-0.1131	0.1337	1073.1595	0.102728	-419.701754	-419.692719	-419.691774	-419.736714	29.508
C         -0.46660        1.39950       -0.24210
C         -0.23260       -0.10670       -0.31600
C          0.84080       -0.49930       -1.30030
O          1.43950        0.25840       -2.02530
C          1.26830       -1.97780       -1.31160
O          1.43050       -2.61100       -0.29600
C          1.52700       -2.64850       -2.66800
O          1.01640       -2.27820       -3.68900
H          0.43820        1.91920        0.08340
H         -0.74020        1.80090       -1.22110
H         -1.26910        1.62800        0.46370
H          0.04410       -0.53740        0.65480
H         -1.14770       -0.64350       -0.60840
H          2.15480       -3.56090       -2.58460
