13
gdb 11695	4.48595	1.54447	1.32084	1.8882	60.67	-0.2586	-0.0593	0.1993	886.3872	0.094662	-398.579243	-398.572387	-398.571442	-398.610628	24.986
O         -0.55000        0.75480        0.68500
C          0.20080        0.97870       -0.23140
C          1.38000        1.86440       -0.12170
C          1.85720        2.62330        1.12320
C          2.08990        3.84220        0.18840
O          2.34080        4.99400        0.38220
C          1.67070        3.06700       -1.04900
N          2.40700        1.81040       -1.14200
H          0.06150        0.54350       -1.24340
H          1.06200        2.84220        1.84060
H          2.71250        2.19270        1.65100
H          1.14450        3.42420       -1.92670
H          3.34500        1.85770       -0.74860
