16
gdb 250	7.28576	2.0531	1.72307	0.6828	62.17	-0.259	0.0553	0.3143	738.9549	0.140781	-234.476081	-234.46852	-234.467575	-234.506975	27.444
C          0.03240        1.55980        0.01740
C          0.01650        0.02740        0.03050
C          0.74010       -0.52950        1.26180
C         -1.42920       -0.52600       -0.02980
C         -2.15050       -0.16300       -1.24370
C         -2.72620        0.13930       -2.25520
H          1.05900        1.93990        0.00960
H         -0.48450        1.95340       -0.86200
H         -0.46440        1.96240        0.90870
H          0.53650       -0.32920       -0.86800
H          0.24280       -0.21190        2.18630
H          0.76350       -1.62450        1.25420
H          1.77380       -0.17200        1.30340
H         -1.39960       -1.62000        0.05630
H         -1.98580       -0.16760        0.84750
H         -3.24450        0.40190       -3.14370
