18
gdb 9523	3.09019	1.58773	1.48617	1.173	68.34	-0.2503	-0.0275	0.2228	969.019	0.151093	-384.948435	-384.939603	-384.938659	-384.981838	31.741
C          0.27730        1.48520        0.21290
C         -0.02380        0.01430       -0.09330
C          0.59530       -0.47780       -1.40650
C          0.04840        0.19630       -2.65850
O          2.05950       -0.41830       -1.35980
C          2.22870       -1.84600       -1.42350
C          0.70770       -2.01150       -1.49890
O         -0.06150       -2.91890       -1.59130
H          1.35590        1.66470        0.19680
H         -0.19190        2.15920       -0.50970
H         -0.09840        1.75280        1.20480
H          0.36040       -0.60920        0.72270
H         -1.10500       -0.16210       -0.13790
H          0.25550        1.26950       -2.63770
H          0.51160       -0.21970       -3.55730
H         -1.03370        0.04900       -2.72630
H          2.78160       -2.17700       -2.31200
H          2.70260       -2.26830       -0.52790
