14
gdb 1325	5.31189	1.89492	1.67309	4.0657	58.67	-0.2939	-0.0007	0.2932	767.8302	0.111446	-324.578381	-324.570922	-324.569978	-324.609576	26.587
C         -0.09890        1.54020        0.00690
C         -0.05210        0.03100        0.05720
C         -1.21390       -0.69820       -0.58010
O          1.23500       -0.55210       -0.19550
C          0.70790       -0.66530        1.12750
C          1.39840        0.06150        2.17130
N          1.93240        0.62940        3.02500
H          0.77410        1.98160        0.49060
H         -0.12540        1.87410       -1.03540
H         -1.00060        1.91280        0.50320
H         -1.29600       -0.41930       -1.63570
H         -1.07840       -1.78060       -0.52200
H         -2.15430       -0.43190       -0.08750
H          0.40260       -1.66880        1.42020
