16
gdb 1543	5.63191	1.28563	1.10569	3.4606	61.63	-0.3012	0.0125	0.3136	1052.2991	0.135501	-325.792503	-325.784155	-325.78321	-325.825392	28.988
C         -0.03930        1.57090        0.03750
C         -0.01070        0.04110       -0.00290
C          0.72900       -0.50160       -1.22960
C          0.71370       -2.03910       -1.29210
O         -0.59210       -2.58710       -1.33500
C          1.52440       -2.52110       -2.43100
N          2.13530       -2.87930       -3.34430
H          0.97320        1.98830        0.06090
H         -0.54550        1.98190       -0.84300
H         -0.56920        1.93170        0.92400
H          0.47160       -0.34360        0.90540
H         -1.03080       -0.35660        0.00190
H          0.27900       -0.11000       -2.15210
H          1.77250       -0.16390       -1.22950
H          1.15910       -2.44050       -0.37420
H         -1.00760       -2.30980       -2.16010
