18
gdb 14785	9.99249	0.56349	0.55382	3.8475	66.77	-0.2745	0.0088	0.2833	1906.7398	0.151657	-422.093245	-422.083557	-422.082613	-422.129516	32.069
O         -0.00090        1.30520       -0.20690
C         -0.01950       -0.11120       -0.14050
C         -1.45710       -0.54390        0.11890
C         -1.60980       -2.06490        0.20820
C         -3.05180       -2.48000        0.47530
O         -3.14710       -3.90120        0.64250
C         -3.69700       -4.62120       -0.35120
O         -3.78270       -5.81160       -0.31980
H          0.90400        1.58880       -0.36560
H          0.33990       -0.56150       -1.08040
H          0.63110       -0.48380        0.66760
H         -1.79710       -0.07200        1.04890
H         -2.08790       -0.14200       -0.68370
H         -1.27180       -2.53660       -0.72340
H         -0.97870       -2.46700        1.00950
H         -3.42250       -2.03600        1.40420
H         -3.71200       -2.15440       -0.33970
H         -4.06280       -3.98950       -1.18580
