20
gdb 6139	2.89849	1.77797	1.50828	2.2227	71.05	-0.2408	0.0636	0.3044	969.5916	0.174056	-386.137171	-386.127742	-386.126798	-386.170803	34.889
C         -0.25700        1.15430       -1.37530
C          0.31350       -0.12800       -0.80350
O          1.70010       -0.33110       -1.15540
C          2.10310       -0.48660        0.23990
C          2.54400       -1.92160        0.50720
C          3.17590        0.52520        0.61060
C          0.65740       -0.16860        0.71100
O          0.57210        1.04450        1.42390
H          0.26840        2.02640       -0.97990
H         -0.15890        1.14770       -2.46510
H         -1.32250        1.24670       -1.13400
H         -0.29280       -0.98840       -1.12370
H          3.44570       -2.15310       -0.06830
H          2.76610       -2.06890        1.56970
H          1.76430       -2.63170        0.21500
H          2.82750        1.54490        0.44360
H          3.45930        0.42610        1.66300
H          4.06370        0.35000       -0.00560
H          0.17750       -0.98480        1.26580
H         -0.34980        1.19860        1.65220
