22
gdb 19523	3.32802	1.51369	1.4412	0.149	80.98	-0.2555	0.0796	0.3351	1037.7346	0.202593	-313.076844	-313.068708	-313.067764	-313.109527	31.304
C          0.08980        1.44160       -0.20340
C          0.07700       -0.04460        0.17810
C         -1.31700       -0.63950        0.11170
C         -1.99260       -1.19070       -1.12710
C         -1.16140       -1.62380       -2.32970
C         -0.12310       -2.65280       -1.80580
C         -0.63610       -3.13160       -0.42130
C         -1.66910       -2.10900        0.03680
H          1.09750        1.86310       -0.13140
H         -0.26530        1.58760       -1.22900
H         -0.56300        2.02420        0.45630
H          0.77430       -0.58560       -0.46660
H          0.46300       -0.15900        1.20000
H         -2.01130       -0.08490        0.74300
H         -3.01310       -0.87600       -1.32050
H         -1.82920       -2.09300       -3.06120
H         -0.67700       -0.78610       -2.84430
H         -0.00260       -3.48970       -2.49990
H          0.86410       -2.19330       -1.71370
H         -1.12960       -4.10590       -0.51160
H          0.18510       -3.26330        0.29240
H         -2.45250       -2.46310        0.69950
