16
gdb 801	4.56843	1.61921	1.53383	1.4965	60.35	-0.2437	0.0114	0.255	867.5699	0.133694	-362.875317	-362.866609	-362.865665	-362.908204	30.765
C          0.02060        1.49930        0.14780
C         -0.02530       -0.01740       -0.07580
O          0.71980       -0.71020        0.92470
C         -1.44030       -0.54870       -0.01240
C         -2.16620       -0.57910        1.30310
N         -1.92960       -0.92760       -1.12970
O         -3.26190       -1.34870       -0.99880
H          1.05590        1.85830        0.10650
H         -0.54600        2.02170       -0.62860
H         -0.39300        1.76430        1.12550
H          0.36120       -0.24560       -1.07820
H          1.58780       -0.29850        0.98130
H         -2.92150        0.21390        1.34880
H         -2.69870       -1.52680        1.41460
H         -1.46360       -0.45600        2.12760
H         -3.46990       -1.63870       -1.89320
