9
gdb 147	18.45912	3.25271	3.1231	2.3951	36.8	-0.2636	-0.0418	0.2217	402.0419	0.066465	-267.060326	-267.055484	-267.05454	-267.088115	15.818
O         -0.29760        0.29110       -0.65410
C          0.22360        0.85930        0.26970
C          1.44010        1.71600        0.14510
C          1.50360        2.96970        0.92810
O          2.22490        1.82270        1.33730
H         -0.16340        0.79550        1.31170
H          1.99030        1.63910       -0.79050
H          2.09530        3.79300        0.53220
H          0.66580        3.25170        1.56460
