14
gdb 702	10.07023	2.28283	2.06299	1.8416	53.86	-0.2596	0.0938	0.3534	624.9793	0.119787	-270.392715	-270.386836	-270.385891	-270.422223	21.36
C          0.00960        1.54220        0.00050
C          1.30080        0.76850        0.00790
C         -0.01710        0.03190        0.04140
C         -0.44760       -0.65870        1.28870
C         -1.60210       -1.56500        1.33210
O         -0.26800       -2.07800        1.34460
H         -0.26680        2.07750        0.90320
H         -0.30000        2.03230       -0.91550
H          1.88520        0.72400       -0.90390
H          1.89460        0.77980        0.91610
H         -0.31230       -0.47940       -0.87010
H         -0.17590       -0.14340        2.21340
H         -2.16360       -1.69110        2.25720
H         -2.16700       -1.75520        0.41990
