17
gdb 10431	2.89334	1.82994	1.39616	0.7371	64.47	-0.2304	-0.034	0.1964	933.1327	0.14097	-400.964847	-400.956425	-400.955481	-400.99799	29.687
C         -1.62390       -0.71450       -0.15450
N         -0.27260       -0.15510       -0.03250
C          0.64740       -0.61640       -1.04540
C          2.16730       -0.53470       -0.70010
O          2.36350       -1.91460       -1.05600
C          0.94250       -2.13830       -1.09960
C          0.42070       -0.02300       -2.42770
O         -0.34970        0.87600       -2.65110
H         -2.10680       -0.52470       -1.12390
H         -1.59020       -1.79650        0.00980
H         -2.25150       -0.28570        0.63110
H         -0.34610        0.85540       -0.11970
H          2.79610        0.13720       -1.29520
H          2.31860       -0.34460        0.36940
H          0.57880       -2.66340       -0.20790
H          0.63830       -2.68350       -2.00020
H          1.05650       -0.45770       -3.23320
