20
gdb 12371	2.7551	2.01954	1.34995	1.5294	77.02	-0.2377	0.0222	0.2599	981.4125	0.178275	-349.030348	-349.02219	-349.021246	-349.062432	31.607
C         -0.03870        1.54450        0.08150
C         -0.02450        0.04220       -0.00970
C         -0.01760       -0.61610       -1.17350
C          0.01860       -2.11580       -1.31420
C          0.43750       -2.80890       -0.01230
C         -0.29850       -2.18770        1.17810
C          0.02440       -0.69380        1.31600
O          1.28890       -0.47440        1.96060
H          0.79470        1.89790        0.69880
H          0.03120        2.01330       -0.90370
H         -0.95780        1.90110        0.56490
H         -0.05120       -0.04410       -2.09980
H         -0.97530       -2.47430       -1.62460
H          0.69430       -2.39350       -2.13290
H          0.24720       -3.88520       -0.07070
H          1.52090       -2.69470        0.12950
H         -1.38140       -2.30480        1.03780
H         -0.03430       -2.68620        2.11580
H         -0.69750       -0.23810        2.00510
H          1.97480       -0.69830        1.32230
