16
gdb 8823	2.87365	1.62894	1.08086	3.4833	68.01	-0.239	0.022	0.261	1073.1748	0.129126	-379.908972	-379.899589	-379.898645	-379.943517	32.714
C         -0.23770        1.39990        0.10690
N         -0.21840       -0.02240        0.39090
C          0.86830       -0.65550        0.88780
O          1.93240       -0.11460        1.13580
C          0.74140       -2.20230        1.07410
N          1.64390       -2.70670        2.11180
C         -0.63080       -2.65030        1.29220
C         -1.77050       -2.99000        1.47140
H          0.76880        1.78320        0.27770
H         -0.52420        1.58870       -0.93310
H         -0.93640        1.92930        0.76450
H         -1.06790       -0.55770        0.29940
H          1.08340       -2.61790        0.11310
H          2.48910       -2.14000        2.04290
H          1.24400       -2.48630        3.02080
H         -2.76910       -3.31350        1.63500
