16
gdb 11821	3.72064	1.67968	1.3302	2.0991	66.49	-0.2341	-0.0291	0.205	932.6174	0.129157	-383.728258	-383.720283	-383.719339	-383.761036	28.895
O         -0.21810        1.51120       -0.11650
C          0.00220        0.13080        0.02280
C         -1.27730       -0.74710        0.18740
C         -0.79000       -1.63780       -0.97190
C         -0.64340       -3.14690       -1.03050
C         -1.55810       -2.45140       -1.98630
C          0.30530       -0.66100       -1.27180
O          1.05490       -0.47100       -2.19110
H          0.47320        1.85310       -0.69570
H          0.74990       -0.09240        0.80120
H         -1.39850       -1.22740        1.15980
H         -2.17470       -0.17410       -0.05690
H          0.29790       -3.53650       -1.40350
H         -1.08070       -3.70860       -0.21170
H         -2.62860       -2.53940       -1.83480
H         -1.24470       -2.35000       -3.02000
