11
gdb 13	29.45018	8.37701	7.42076	0.0597	34.75	-0.323	0.0949	0.4179	227.1361	0.103182	-119.052475	-119.047927	-119.046983	-119.078157	14.84
C         -0.03110        1.54080        0.03190
C          0.01220        0.01090       -0.01600
C          0.72170       -0.52580       -1.26230
H          0.97960        1.96460        0.03100
H         -0.55840        1.94830       -0.83820
H         -0.54250        1.90150        0.93010
H          0.51520       -0.36840        0.88230
H         -1.01070       -0.38460        0.02050
H          1.75850       -0.17380       -1.30870
H          0.74090       -1.62020       -1.27520
H          0.22020       -0.19050       -2.17730
