17
gdb 16167	4.50245	1.63064	1.40517	1.1867	68.79	-0.2268	0.0151	0.242	911.15	0.143292	-363.836511	-363.829053	-363.828109	-363.868302	28.283
O          0.64060        0.01100        0.82990
C         -0.10560        0.31980       -0.34280
C         -1.48100       -0.31320       -0.33160
N         -2.20800       -0.48600        0.95790
C         -1.77210       -1.67670        0.18450
C         -2.86820       -2.29400       -0.67720
C         -3.19300       -1.18310       -1.65750
C         -2.41920       -0.11020       -1.48070
H          0.56390        0.74970        1.43890
H         -0.19680        1.40770       -0.47560
H          0.46320       -0.06030       -1.20040
H         -1.51590       -0.37190        1.69990
H         -0.98910       -2.29470        0.60930
H         -2.51910       -3.19990       -1.19000
H         -3.74260       -2.58100       -0.08050
H         -3.99340       -1.26420       -2.38480
H         -2.46900        0.80980       -2.05220
