15
gdb 18895	4.50197	2.36483	2.02342	1.554	62.08	-0.2295	0.0617	0.2911	689.0903	0.120456	-362.589784	-362.584068	-362.583124	-362.619092	24.108
O         -0.11460        1.32840       -0.07770
C          0.02190       -0.05060       -0.04810
C          1.05090       -0.79900       -0.88410
N          0.73740       -2.19300       -0.57090
C          0.23500       -2.27950        0.82120
C         -0.71670       -2.31290       -0.32350
C         -1.22510       -0.89240        0.03780
C         -0.25210       -0.86110        1.20980
H          0.62970        1.71460        0.39730
H          0.93040       -0.61420       -1.95610
H          2.08360       -0.57270       -0.59500
H          0.60890       -3.05780        1.47410
H         -1.27290       -3.12170       -0.77980
H         -2.22700       -0.49580       -0.03430
H         -0.38070       -0.43890        2.19590
