14
gdb 530	17.75615	1.40782	1.33715	1.0683	56.07	-0.2584	0.0547	0.3131	867.686	0.117433	-270.387395	-270.379973	-270.379028	-270.418719	25.054
C         -0.03340        1.38130       -0.01710
O          0.00350       -0.02590        0.00250
C          0.67470       -0.54110        1.12810
C          0.64180       -2.06980        1.02610
C          1.31310       -2.71300        2.14710
C          1.87290       -3.21770        3.08320
H          0.97820        1.81630       -0.04230
H         -0.56970        1.68160       -0.92040
H         -0.55910        1.78850        0.86110
H          1.71800       -0.18740        1.16190
H          0.18840       -0.21460        2.06160
H         -0.40420       -2.39380        0.97120
H          1.10980       -2.36700        0.08010
H          2.36400       -3.67680        3.90470
