19
gdb 16753	5.32587	1.32045	1.18739	1.3666	77.51	-0.2221	0.0205	0.2425	1072.6161	0.166937	-327.915906	-327.908307	-327.907363	-327.947972	29.269
C         -0.31330        1.47560       -0.02960
C          0.15860        0.01200        0.02350
C          0.85890       -0.44240       -1.22260
C          2.10630       -0.91980       -1.31330
C          2.41740       -1.37150       -2.69840
N          1.53150       -2.49170       -3.14330
C          1.19700       -1.09600       -3.50350
C          0.16830       -0.45160       -2.58270
H          0.53220        2.15400       -0.18250
H         -1.02460        1.63930       -0.84530
H         -0.80950        1.75740        0.90410
H          0.82490       -0.12790        0.88220
H         -0.71410       -0.63220        0.20290
H          2.79540       -1.02380       -0.48280
H          3.42150       -1.31280       -3.10520
H          1.95600       -2.93000       -3.96010
H          1.24780       -0.80250       -4.54650
H         -0.76950       -1.02040       -2.55510
H         -0.08370        0.56340       -2.91700
