18
gdb 4015	3.19106	1.35948	1.19346	8.7692	71.67	-0.146	0.0102	0.1562	1081.7132	0.153041	-418.138616	-418.129558	-418.128614	-418.172491	32.25
C         -0.55450        1.06280       -0.69550
N         -0.13950       -0.35130       -0.56930
H         -0.43410       -0.75810        0.32040
H         -0.54590       -0.97860       -1.29830
C          1.44500       -0.70560       -0.64000
C          1.50310       -2.12680       -0.94870
C          1.03860       -2.56640       -2.30230
O         -0.42610       -2.60790       -2.29420
N          1.22970       -2.90590        0.11050
O          0.72000       -4.04480       -0.15010
H         -0.07850        1.64980        0.09230
H         -0.23150        1.43570       -1.66880
H         -1.64010        1.15200       -0.61540
H          1.82120       -0.02000       -1.40310
H          1.81970       -0.44950        0.35240
H          1.32200       -1.87630       -3.10310
H          1.41420       -3.56590       -2.53740
H         -0.57050       -3.31570       -1.63710
