16
gdb 8664	2.16701	1.93833	1.39367	2.2405	62.11	-0.257	-0.0609	0.1961	950.955	0.126152	-420.886813	-420.877355	-420.876411	-420.921508	32.082
C         -0.34760        1.61200       -0.09500
C         -0.03650        0.10790       -0.00540
C          0.85420       -0.26000        1.18030
O          0.13600        0.08360        2.35620
C         -1.34490       -0.69560        0.08930
O         -2.39990       -0.32180       -0.34760
C          0.62350       -0.33310       -1.31510
O          1.62310       -0.99870       -1.38680
H          0.55880        2.18450       -0.31470
H         -1.08860        1.80150       -0.87400
H         -0.75360        1.95530        0.85810
H          1.08350       -1.33420        1.14270
H          1.80900        0.27900        1.10740
H          0.65740       -0.17910        3.12030
H         -1.23270       -1.69100        0.57000
H          0.09260        0.02420       -2.22400
