19
gdb 17568	3.36696	2.32918	1.88274	1.4676	74.31	-0.223	0.0872	0.3103	800.8261	0.167991	-327.87878	-327.872282	-327.871338	-327.908813	27.585
C         -0.03990        1.52150        0.04350
C          0.03110        0.01180        0.05020
C          0.91310       -0.81250       -0.96420
C          0.71620       -1.93760        0.10990
C          0.78350       -0.79120        1.15410
C         -0.79970       -2.17630       -0.04500
N         -1.63910       -1.65230        1.06250
C         -1.29070       -0.78340       -0.09000
H          0.95890        1.96780        0.09170
H         -0.52660        1.89370       -0.86620
H         -0.61360        1.89130        0.90070
H          0.50760       -0.98730       -1.96640
H          1.94290       -0.44920       -1.02850
H          1.36850       -2.80880        0.16540
H          1.80470       -0.42440        1.28030
H          0.29470       -0.93350        2.11580
H         -1.17780       -2.96880       -0.68080
H         -2.58940       -1.99340        0.92710
H         -2.06870       -0.43680       -0.76210
