13
gdb 20505	9.26002	1.02905	0.93152	1.8759	72.05	-0.2328	-0.0093	0.2235	1195.1239	0.096958	-357.646651	-357.639213	-357.638269	-357.681222	25.215
C         -0.00700        1.43300        0.00980
C          0.00800       -0.02030        0.00220
C          0.02150       -1.22470       -0.00410
C          0.02140       -2.64190       -0.01140
N          1.14700       -3.35770       -0.02160
N          0.67630       -4.62280       -0.02540
C         -0.67280       -4.62800       -0.01760
N         -1.12870       -3.39510       -0.00850
H          1.01070        1.83740        0.00190
H         -0.53120        1.82770       -0.86760
H         -0.51390        1.81870        0.90130
H          1.32280       -5.39470       -0.03310
H         -1.26260       -5.53250       -0.01870
