16
gdb 16726	4.96764	1.43688	1.30713	1.8624	69.61	-0.2557	0.0497	0.3054	948.3089	0.130769	-346.560678	-346.553559	-346.552615	-346.592468	27.29
C          0.10910       -1.20160        0.13200
C          0.05040       -0.00220        0.07150
C         -0.01080        1.45040        0.01320
C         -0.70620        2.11330        1.24970
C          0.02340        3.43140        1.44280
O          1.31100        3.26860        2.04880
C          1.24980        3.45050        0.62940
C          1.38410        2.14580       -0.13660
H          0.15970       -2.26090        0.18330
H         -0.60030        1.72940       -0.86910
H         -1.77460        2.25600        1.06730
H         -0.59730        1.49320        2.14350
H         -0.51540        4.33130        1.73000
H          1.70440        4.36580        0.25780
H          2.17840        1.53640        0.30260
H          1.62840        2.30890       -1.18970
