12
gdb 20760	7.46767	1.32801	1.13545	3.0967	59.39	-0.2888	-0.0987	0.1901	975.861	0.083192	-414.671612	-414.664582	-414.663637	-414.703282	24.047
C         -0.00080        1.48150        0.03670
C         -0.00220       -0.00650       -0.00340
N         -0.08410       -0.68290       -1.12590
O         -0.05330       -2.01380       -0.72460
C          0.04480       -1.99830        0.60790
C          0.10210       -3.27040        1.36980
O          0.06580       -4.35960        0.86120
N          0.08090       -0.80190        1.11780
H          0.91730        1.84570        0.50650
H         -0.07420        1.88660       -0.97330
H         -0.84270        1.84400        0.63360
H          0.18220       -3.10330        2.46070
