19
gdb 9510	2.32679	1.96227	1.83961	1.7634	72.52	-0.2121	-0.03	0.1821	907.6173	0.163197	-365.048723	-365.039854	-365.03891	-365.081973	32.219
C         -0.15540        1.49470       -0.07470
N         -0.06710        0.06260        0.13470
C         -1.23460       -0.66330        0.66960
C         -0.27300       -1.60430        1.43070
C          0.83390       -0.55200        1.16610
C          2.17890       -1.00410        0.61700
C          1.02410        0.39300        2.34930
O          0.33780        0.41520        3.34030
H          0.82470        1.89500       -0.35600
H         -0.84060        1.68650       -0.90790
H         -0.52560        2.05990        0.79870
H         -1.85150       -0.06040        1.35310
H         -1.88050       -1.09790       -0.10100
H         -0.50140       -1.78360        2.48000
H         -0.08250       -2.54600        0.91360
H          2.02780       -1.60660       -0.28180
H          2.80660       -0.14590        0.34930
H          2.72570       -1.60060        1.35650
H          1.84920        1.13200        2.21490
