20
gdb 9824	3.68464	1.42281	1.13917	2.5862	75.88	-0.2393	-0.0064	0.2329	1120.9038	0.175043	-349.025497	-349.016297	-349.015353	-349.059636	33.743
C         -0.05980        1.55380        0.01340
C          0.22420        0.05410        0.01110
C          0.42670       -0.51830       -1.38590
O          0.35720        0.19300       -2.36890
C          0.71550       -1.99080       -1.51490
C          0.79600       -2.85050       -0.26790
C          0.16040       -2.62450       -2.78780
C          1.62170       -2.34650       -2.69050
H          0.76370        2.10720       -0.44470
H         -0.96020        1.78100       -0.56260
H         -0.19860        1.91830        1.03520
H          1.11520       -0.18020        0.60940
H         -0.59060       -0.50290        0.49380
H         -0.14420       -2.84990        0.29420
H          1.01080       -3.88860       -0.53830
H          1.59150       -2.52070        0.40910
H         -0.18540       -3.64950       -2.71010
H         -0.42740       -1.97560       -3.42610
H          2.00810       -1.51230       -3.26390
H          2.30530       -3.17580       -2.54430
