15
gdb 2995	5.13818	1.77735	1.47382	1.9443	57.64	-0.2495	-0.025	0.2245	842.7333	0.123043	-345.650717	-345.64309	-345.642146	-345.6831	26.323
C         -0.36210        1.44690       -0.57400
C         -0.65170       -0.04860       -0.48100
C         -1.00120       -0.49870        0.92580
O         -0.95440        0.23320        1.88910
C         -1.40080       -1.93920        1.11920
C         -2.51470       -2.53760        0.35430
O         -1.16530       -2.85670        0.04950
H         -0.08220        1.72260       -1.59430
H         -1.23690        2.03570       -0.28500
H          0.45240        1.72770        0.09810
H         -1.45870       -0.34570       -1.16320
H          0.20930       -0.64900       -0.80400
H         -1.20670       -2.31690        2.12200
H         -3.09710       -3.33130        0.81890
H         -3.04080       -1.94420       -0.39140
