15
gdb 2880	6.59349	1.88541	1.58293	0.8494	68.09	-0.2439	0.0193	0.2632	782.1877	0.12556	-271.360631	-271.354023	-271.353079	-271.391083	25.015
C         -0.06570       -1.24110       -0.07970
C         -0.02670       -0.04000       -0.03880
C          0.02240        1.41680        0.01700
C         -0.62050        2.02350        1.30450
C          0.22360        3.27970        1.62890
C          1.52650        3.00760        0.91470
C          1.42830        2.00250        0.04950
H         -0.10000       -2.30160       -0.11700
H         -0.49810        1.80280       -0.87360
H         -1.68400        2.23470        1.17350
H         -0.52420        1.29500        2.11370
H         -0.24310        4.19730        1.24330
H          0.34850        3.42980        2.70690
H          2.41800        3.60400        1.07520
H          2.21200        1.63630       -0.60260
