17
gdb 8812	3.78159	1.35057	1.00832	1.6129	69.65	-0.2323	-0.0167	0.2155	1160.0852	0.141479	-397.227079	-397.217538	-397.216594	-397.261526	32.907
C          0.00170        1.38500        0.09400
N          0.10770       -0.05050       -0.03280
C          0.64090       -0.66030       -1.10700
O          1.10750       -0.10400       -2.09360
C          0.61890       -2.18160       -1.00920
N          1.24690       -2.76310       -2.06700
N          0.06720       -2.73430        0.00510
C          0.07230       -4.18370        0.06430
H          0.53990        1.74620        0.97750
H          0.44290        1.83140       -0.79850
H         -1.04450        1.70240        0.17130
H         -0.24140       -0.68010        0.67840
H          1.49170       -2.13220       -2.81680
H          1.11280       -3.73700       -2.27230
H          1.09280       -4.59670        0.03200
H         -0.39600       -4.51660        0.99360
H         -0.49030       -4.63680       -0.76880
