14
gdb 5678	5.28943	2.1791	1.55835	3.875	70.57	-0.2032	-0.0213	0.182	762.9391	0.111501	-341.629269	-341.623701	-341.622757	-341.658777	22.074
C         -0.05910        1.47060        0.01060
C          1.40250        1.88030       -0.00110
C          2.19760        0.79570       -0.01470
C          1.37390       -0.39780       -0.01350
C          1.32530       -1.77250       -0.02050
N          0.01410       -2.19290       -0.01020
C         -0.72260       -1.09770        0.00270
N          0.05390        0.01720        0.00140
H         -0.58800        1.82640        0.90340
H         -0.60490        1.83630       -0.86800
H          1.71190        2.91600        0.00170
H          3.27830        0.79280       -0.02500
H          2.14160       -2.47770       -0.03220
H         -1.80170       -1.06520        0.01320
