20
gdb 8037	3.21863	1.97721	1.54329	1.5145	74.54	-0.2336	0.0833	0.3169	924.7188	0.176493	-348.987775	-348.979719	-348.978775	-349.019897	31.196
C          0.27320        1.56100       -0.14750
C          0.03570        0.08230        0.08090
O          0.78060       -0.76060       -0.83940
C          1.26220       -1.60430        0.23870
C          0.94850       -3.06100        0.01860
C          2.68190       -1.17250        0.69270
C          2.04250       -0.23280        1.76260
C          0.62260       -0.65650        1.30320
H          1.33190        1.81940       -0.06120
H         -0.05890        1.83890       -1.15300
H         -0.29470        2.15780        0.57480
H         -1.03970       -0.12970       -0.01920
H          1.48120       -3.43090       -0.86520
H          1.25850       -3.66350        0.87860
H         -0.12300       -3.21050       -0.14600
H          3.28480       -1.98000        1.11780
H          3.25090       -0.68320       -0.10070
H          2.25660       -0.54700        2.78670
H          2.28180        0.83010        1.68360
H         -0.08240       -0.97820        2.07010
