11
gdb 23785	6.10665	1.61015	1.27542	4.8206	56.32	-0.2461	-0.0775	0.1686	839.6824	0.073091	-434.880064	-434.873905	-434.872961	-434.910369	23.134
N         -0.01160        1.36480        0.17320
C         -0.02060       -0.00550        0.05950
C         -1.21500       -0.75800        0.04230
N         -1.18000       -2.07360       -0.00980
C          0.04400       -2.59200       -0.03430
F          0.11430       -3.90790       -0.07810
N          1.19510       -1.95440       -0.02620
N          1.16200       -0.62450        0.01370
H          0.88190        1.78870       -0.03220
H         -0.80470        1.86420       -0.19710
H         -2.19100       -0.27730        0.06940
