14
gdb 11325	4.61184	1.54185	1.17241	3.1689	61.51	-0.2655	0.0016	0.2671	970.5335	0.10752	-415.918324	-415.910493	-415.909549	-415.951944	26.535
C          0.04440        1.42870        0.02220
N          0.14940       -0.02160        0.03830
C          0.60600       -0.63620       -0.95080
C          0.76620       -2.14270       -1.05750
N          1.32470       -2.25850       -2.38400
C          1.49130       -1.06080       -3.01050
O          1.92260       -0.82020       -4.09860
O          1.05180       -0.06960       -2.13330
H          0.61920        1.83190        0.86280
H          0.39270        1.89600       -0.90460
H         -1.00140        1.70720        0.19070
H          1.43440       -2.51900       -0.27460
H         -0.20220       -2.64500       -0.95280
H          1.57950       -3.11490       -2.84270
