20
gdb 9405	4.39509	0.90746	0.78829	1.8012	73.14	-0.2522	-0.0218	0.2303	1472.0668	0.173655	-386.149829	-386.139763	-386.138818	-386.185644	34.297
C         -0.04270        1.44720       -0.01630
C         -0.07470       -0.06070        0.16630
O         -1.40610       -0.50710        0.00270
C         -1.54800       -1.90310        0.15240
C         -3.01600       -2.25630       -0.06430
C         -3.51750       -1.89440       -1.47460
C         -3.28800       -3.71620        0.22500
O         -2.46260       -4.52060        0.57790
H          0.97710        1.82440        0.10470
H         -0.39800        1.72060       -1.01400
H         -0.68420        1.93700        0.72180
H          0.58360       -0.55470       -0.56830
H          0.29760       -0.33840        1.16690
H         -0.91900       -2.44200       -0.57530
H         -1.22400       -2.22700        1.15300
H         -3.61910       -1.68430        0.65830
H         -4.58110       -2.12520       -1.59120
H         -3.37060       -0.82790       -1.65270
H         -2.96330       -2.44890       -2.23970
H         -4.35150       -4.01760        0.07590
