14
gdb 2834	5.19738	1.72203	1.44657	3.7059	58.51	-0.2968	-0.0028	0.2941	842.0586	0.112511	-324.570042	-324.562758	-324.561814	-324.601728	25.356
C         -0.23920        1.48010        0.16640
C          0.32040        0.08980       -0.15940
C          0.97890       -0.54170        1.04000
O          0.12500       -1.06100        2.06230
C          0.92960       -1.99140        1.33690
C          0.23390       -2.91340        0.46420
N         -0.29630       -3.66650       -0.23430
H          0.55120        2.16000        0.50230
H         -0.71010        1.92380       -0.71480
H         -0.99020        1.41800        0.95930
H         -0.47810       -0.56650       -0.51910
H          1.06480        0.15920       -0.96240
H          1.85110       -0.01440        1.43260
H          1.73950       -2.44610        1.90470
