17
gdb 19266	3.29983	1.74695	1.29258	2.1524	68.88	-0.2414	-0.0224	0.2189	969.0649	0.141798	-363.836305	-363.828625	-363.827681	-363.868536	28.449
C          0.01770        1.62900        0.21820
C          0.08910        0.11340        0.00060
C         -1.28590       -0.52430       -0.12310
N         -2.16420       -0.16020       -1.30840
C         -1.52170       -0.72600       -2.48830
C         -2.33330       -1.64320       -1.63430
C         -1.51180       -2.02330       -0.43590
O         -1.29850       -3.04320        0.15290
H          1.01950        2.06000        0.30310
H         -0.49500        2.12170       -0.61340
H         -0.53150        1.86960        1.13470
H          0.70020       -0.10870       -0.88110
H          0.59490       -0.36920        0.84560
H         -1.87200       -0.30290        0.77870
H         -1.97580       -0.41350       -3.42370
H         -0.44190       -0.83900       -2.52820
H         -3.26820       -2.08130       -1.96380
