15
gdb 17223	5.32494	1.6931	1.53527	4.5585	70.21	-0.2688	0.0211	0.2899	830.7761	0.12103	-325.493357	-325.487239	-325.486295	-325.523455	24.313
N          0.07630       -1.08210       -0.10280
C          0.03590        0.07350       -0.03860
C         -0.02920        1.49220        0.05020
C         -1.13530        2.34490        0.68030
C         -0.48860        3.54090       -0.06650
C          0.89790        3.70640        0.61890
C          1.25410        2.36540       -0.01530
C          0.18970        2.51210       -1.06250
H         -2.11000        2.07820        0.26580
H         -1.19330        2.39870        1.77220
H         -1.08330        4.40550       -0.34830
H          1.47980        4.51250        0.16440
H          0.91520        3.80330        1.70940
H          2.21900        1.88500       -0.10920
H          0.18990        2.37740       -2.13380
