14
gdb 8809	5.16852	1.09652	0.91479	0.0004	55.61	-0.2428	-0.0853	0.1576	1179.4221	0.102822	-456.812787	-456.803527	-456.802583	-456.847571	30.729
O         -0.02500        1.40770        0.00950
C         -0.02690        0.00570        0.00260
C         -1.45950       -0.49030        0.01340
O         -2.43010        0.22550        0.02610
C         -1.61570       -2.02600        0.00690
O         -0.64510       -2.74180       -0.00600
C         -3.04830       -2.52200        0.01740
O         -3.05020       -3.92400        0.01030
H          0.89000        1.70290        0.00210
H          0.46580       -0.43000       -0.88260
H          0.48200       -0.43870        0.87410
H         -3.54110       -2.08650        0.90260
H         -3.55710       -2.07750       -0.85410
H         -3.96520       -4.21920        0.01720
