16
gdb 11713	5.72482	1.35132	1.23318	1.3321	72.71	-0.2334	0.0376	0.271	980.5819	0.129444	-346.539287	-346.531642	-346.530698	-346.570878	29.569
O         -0.10720        1.43980       -0.11240
C         -0.02340        0.03920        0.03410
C          0.26030       -0.55050        1.46030
C         -1.09140       -1.28610        1.39440
C         -2.19110       -0.26560        1.20610
C         -1.37960       -0.65060        0.00830
C         -1.32510       -2.61710        1.83700
C         -1.49930       -3.74530        2.22010
H          0.78350        1.80190       -0.06680
H          0.65920       -0.39640       -0.70690
H          1.11940       -1.22320        1.47980
H          0.35000        0.18410        2.26640
H         -3.19720       -0.66880        1.22880
H         -2.08270        0.72270        1.64330
H         -1.82650       -1.12070       -0.85850
H         -1.65950       -4.73880        2.55740
