17
gdb 6339	5.39566	1.07121	0.9045	5.4887	67.3	-0.245	0.0108	0.2559	1259.4282	0.142265	-397.237683	-397.228588	-397.227643	-397.271882	32.377
C          0.05390        1.60120       -0.14120
C          0.09560        0.09180        0.08020
C          0.78620       -0.31700        1.36710
N          1.27900        0.53620        2.16260
N          0.80160       -1.72300        1.52850
C          1.33280       -2.42090        2.60280
N          1.18620       -3.79410        2.49160
O          1.84300       -1.89610        3.57410
H          1.06340        2.01630       -0.17470
H         -0.45460        1.83320       -1.08170
H         -0.47270        2.09880        0.67590
H         -0.92430       -0.32000        0.09010
H          0.60580       -0.40370       -0.75840
H          1.69140        0.07310        2.97350
H          0.30000       -2.25470        0.83440
H          1.17830       -4.21200        1.57370
H          1.72660       -4.30020        3.17670
