22
gdb 7771	3.1989	1.61764	1.15574	0.2287	83.97	-0.2349	0.0303	0.2652	1115.5621	0.2015	-313.101561	-313.0932	-313.092256	-313.133821	32.799
C         -0.01310        1.57010        0.00070
C          0.02270        0.03990       -0.00340
C          0.70880       -0.50930       -1.26680
C          1.00420       -1.98300       -1.16910
C          0.95190       -2.67110       -0.02960
C          0.63100       -2.05960        1.31410
C          1.53930       -2.62790        2.41530
C          0.71110       -0.52550        1.24740
H          1.00100        1.98600        0.03580
H         -0.50020        1.96020       -0.89980
H         -0.55930        1.95290        0.86940
H         -1.01390       -0.32770       -0.00590
H          0.08290       -0.31330       -2.14770
H          1.64440        0.04310       -1.44960
H          1.26650       -2.49350       -2.09340
H          1.15830       -3.74010       -0.03750
H         -0.40380       -2.33660        1.57380
H          2.59150       -2.40160        2.20960
H          1.28680       -2.20110        3.39180
H          1.44040       -3.71620        2.48890
H          1.76850       -0.22270        1.23940
H          0.27060       -0.09110        2.15340
