16
gdb 14630	5.80657	0.91366	0.8251	0.0005	63.16	-0.251	0.0205	0.2715	1315.175	0.130573	-417.108868	-417.099896	-417.098951	-417.144032	29.973
O          0.50510        0.56690       -1.17720
C          0.28600        1.38060       -0.30240
N          1.21530        1.82970        0.57950
C          2.59150        1.36210        0.55040
C          3.40180        2.01410       -0.58550
N          4.77800        1.54660       -0.61460
C          5.70730        1.99570        0.26730
O          5.48820        2.80930        1.14210
H         -0.70920        1.83680       -0.13230
H          0.94800        2.53440        1.24710
H          3.06240        1.59520        1.50700
H          2.58640        0.27660        0.41490
H          2.93090        1.78100       -1.54210
H          3.40690        3.09970       -0.45010
H          5.04530        0.84210       -1.28240
H          6.70250        1.53960        0.09710
