17
gdb 16004	3.91524	1.91991	1.5556	2.1795	68.36	-0.2442	0.029	0.2732	849.2246	0.144555	-363.861364	-363.854555	-363.853611	-363.892251	26.433
C         -0.03720        1.51570        0.01020
C          1.30030        0.81210       -0.00170
C          0.03010        0.00870        0.00310
C         -0.37070       -0.73670        1.24940
O         -1.78160       -1.01850        1.24520
C         -2.31440       -1.30470        0.03140
N         -1.79110       -1.24650       -1.11790
C         -0.41670       -0.75740       -1.22730
H         -0.34460        2.01300        0.92430
H         -0.36070        2.01310       -0.89790
H          1.88160        0.83060       -0.91800
H          1.90030        0.83550        0.90270
H          0.16610       -1.69250        1.32440
H         -0.18170       -0.16190        2.15960
H         -3.34890       -1.62140        0.15430
H         -0.34980       -0.12750       -2.12190
H          0.24400       -1.61750       -1.40930
