24
gdb 7196	5.58597	0.71523	0.6659	1.2801	82.81	-0.2601	0.0724	0.3325	1805.1952	0.22136	-351.421654	-351.410832	-351.409888	-351.457895	38.569
C         -0.10210        1.59510        0.01410
C         -0.03560        0.06590        0.00270
C          0.73240       -0.49430       -1.19880
C          0.75210       -2.02690       -1.25670
O         -0.57280       -2.56420       -1.28280
C          1.59340       -2.55800       -2.42410
C          1.69670       -4.08610       -2.46250
C          2.48490       -4.60550       -3.66740
H          0.89990        2.03820        0.04420
H         -0.60260        1.97750       -0.88290
H         -0.65440        1.96390        0.88420
H          0.43920       -0.28810        0.92740
H         -1.04610       -0.35630        0.00200
H          0.28920       -0.11270       -2.13210
H          1.76710       -0.12650       -1.18490
H          1.17300       -2.40940       -0.31660
H         -0.99150       -2.25660       -2.09520
H          1.15700       -2.19260       -3.36700
H          2.59770       -2.11720       -2.36690
H          2.16990       -4.43600       -1.53540
H          0.68570       -4.50700       -2.46230
H          2.54260       -5.69850       -3.66520
H          2.01640       -4.30000       -4.61010
H          3.51040       -4.21860       -3.67080
