17
gdb 12360	3.17392	2.18332	1.34638	4.0169	71.61	-0.2319	-0.0293	0.2026	907.5683	0.144054	-363.910936	-363.903415	-363.902471	-363.942691	27.875
C         -0.03290        1.45120        0.02790
N          0.02060        0.01330       -0.16350
C         -1.23840       -0.71740       -0.06180
C         -1.17870       -2.06350       -0.78430
C          0.09160       -2.79030       -0.44430
C          1.17700       -2.11880       -0.05910
C          1.22480       -0.63410        0.01350
O          2.28110       -0.04180        0.18020
H          0.98090        1.84210       -0.04590
H         -0.66560        1.91130       -0.73900
H         -0.44150        1.71370        1.01450
H         -1.50170       -0.87970        0.99680
H         -2.02760       -0.09330       -0.49300
H         -2.05650       -2.65940       -0.51250
H         -1.23100       -1.91600       -1.87300
H          0.11640       -3.87120       -0.55560
H          2.11990       -2.60340        0.16620
