20
gdb 7500	3.80378	1.28801	1.17513	2.0876	71.82	-0.2494	0.0785	0.3279	1125.7673	0.176037	-386.120743	-386.111931	-386.110987	-386.15409	32.69
C         -0.14610        1.33670        0.20540
O         -0.05080       -0.06750        0.14360
C         -1.30410       -0.71340        0.00820
C         -1.02300       -2.20100       -0.15930
O         -0.18690       -2.39940       -1.27570
C         -0.61730       -2.90490        1.17460
C         -2.08420       -3.39390        1.31900
C         -2.30880       -3.06010       -0.18210
H          0.86870        1.73080        0.29920
H         -0.60950        1.75370       -0.70200
H         -0.73660        1.66430        1.07470
H         -1.93840       -0.52220        0.88850
H         -1.83320       -0.33720       -0.88310
H          0.48830       -1.71010       -1.22950
H          0.06900       -3.72740        0.96030
H         -0.19570       -2.28010        1.96540
H         -2.23420       -4.43190        1.62170
H         -2.67610       -2.75600        1.98090
H         -3.24130       -2.56630       -0.47140
H         -2.15420       -3.92880       -0.82640
