21
gdb 1291	6.28879	0.99301	0.90285	1.299	71.46	-0.2615	0.0807	0.3422	1317.5841	0.193012	-312.126356	-312.116803	-312.115859	-312.160781	33.643
C         -0.08490        1.56150        0.11300
C         -0.02060        0.03250       -0.00900
C         -1.43260       -0.56890        0.00590
C          0.74620       -0.42680       -1.26300
C          2.22820       -0.03870       -1.29350
C          2.96090       -0.61530       -2.49790
O          4.31300       -0.18470       -2.43860
H          0.90980        2.01140        0.17670
H         -0.59560        2.00030       -0.75310
H         -0.63990        1.85930        1.00890
H          0.51840       -0.35350        0.86880
H         -2.01550       -0.22000       -0.85520
H         -1.40200       -1.66290       -0.03580
H         -1.97740       -0.28210        0.91150
H          0.66450       -1.52010       -1.33790
H          0.24190       -0.02510       -2.15430
H          2.34780        1.05000       -1.31520
H          2.72950       -0.39030       -0.38290
H          2.89260       -1.71580       -2.48340
H          2.47480       -0.27370       -3.42700
H          4.77800       -0.54890       -3.19720
