18
gdb 17003	3.67398	2.1818	1.95566	1.8431	69.86	-0.222	0.0696	0.2916	778.9434	0.156178	-347.761319	-347.754987	-347.754043	-347.791293	26.296
C          0.07590        1.41470       -0.16740
C          1.41620        0.70920       -0.03620
C          1.56670        0.19130        1.39830
O          0.26280       -0.46360        1.35960
C          0.12450       -0.07040       -0.01710
C          0.07770       -1.02750       -1.18110
C          1.12650       -0.41890       -2.16400
C          2.19170        0.30000       -1.27250
H         -0.29190        2.00450        0.66610
H         -0.16600        1.81300       -1.14690
H          2.37020       -0.54680        1.51080
H          1.62890        0.92790        2.20830
H          0.40540       -2.01000       -0.82430
H         -0.90390       -1.15240       -1.64890
H          1.57050       -1.17600       -2.81610
H          0.63890        0.30860       -2.82140
H          2.67970        1.12110       -1.80790
H          2.97830       -0.40670       -0.98250
