20
gdb 10066	3.33995	1.23471	0.97427	0.7199	77.6	-0.2399	0.0498	0.2897	1244.6294	0.173479	-348.966541	-348.956318	-348.955373	-349.002524	35.805
C         -0.47720        1.09370        0.52550
C         -0.19130       -0.33530        0.06070
C          0.54700       -0.39380       -1.28110
C          0.85960       -1.86350       -1.66450
C          1.81140       -2.03540       -2.75550
C          2.61880       -2.19260       -3.63300
O         -0.28740        0.22690       -2.24410
C          0.37220        0.88210       -3.30960
H          0.45260        1.65190        0.68380
H         -1.06790        1.62730       -0.22270
H         -1.03120        1.09650        1.46890
H          0.40680       -0.86420        0.81230
H         -1.13270       -0.88980       -0.04250
H          1.49570        0.16020       -1.19820
H          1.24830       -2.37940       -0.77740
H         -0.09190       -2.34690       -1.91780
H          3.32520       -2.32920       -4.41380
H          1.09240        1.62740       -2.93900
H          0.90220        0.18230       -3.96530
H         -0.39970        1.39880       -3.88640
