20
gdb 11042	4.03057	1.68222	1.42542	1.4852	74.89	-0.2466	0.093	0.3396	964.1023	0.177367	-349.011212	-349.003272	-349.002327	-349.042872	30.977
C          0.05520        1.56360       -0.04280
C          0.04980        0.04660        0.06060
O          0.72940       -0.48850       -1.08050
C          1.18830       -1.79400       -0.75550
C          1.50470       -1.77770        0.73520
C          1.59330       -3.09140        1.47010
C          2.28330       -0.56450        1.18210
C          0.77400       -0.56100        1.25380
H          1.07730        1.95080       -0.00590
H         -0.40210        1.88220       -0.98390
H         -0.51410        2.00300        0.78230
H         -0.99520       -0.31180        0.07080
H          0.41250       -2.55240       -0.95970
H          2.05120       -2.00790       -1.39650
H          2.44000       -3.69150        1.11590
H          1.72970       -2.93520        2.54460
H          0.68370       -3.68790        1.33120
H          2.82290       -0.64100        2.12010
H          2.76630        0.05060        0.42920
H          0.27900       -0.56450        2.21860
