16
gdb 9727	3.48479	1.69599	1.56316	1.0297	66.06	-0.2599	0.0316	0.2915	885.6754	0.129184	-383.702932	-383.69503	-383.694086	-383.735343	29.209
C         -0.04760        1.56820        0.06950
C         -0.00510        0.03860       -0.00690
C          0.83940       -0.48170       -1.21710
O          2.10590       -0.75360       -0.64670
C          1.79830       -1.23980        0.63490
O          0.74750       -0.43720        1.12800
C         -1.35270       -0.53480       -0.00720
C         -2.46300       -0.99400       -0.02900
H          0.97100        1.95970        0.00080
H         -0.65140        1.98030       -0.74380
H         -0.48230        1.88160        1.02130
H          0.38770       -1.39000       -1.63780
H          0.95940        0.26680       -2.00210
H          1.48650       -2.29890        0.58690
H          2.67300       -1.12920        1.28140
H         -3.44340       -1.40290       -0.03840
