19
gdb 8152	3.72941	1.75196	1.5894	1.3598	70.83	-0.2195	0.0711	0.2905	899.1962	0.166264	-365.05008	-365.042415	-365.041471	-365.081408	30.313
C         -0.21860        1.45060        0.14150
C          0.05380       -0.01960       -0.05930
C         -0.76260       -1.05850        0.62510
N          0.61650       -0.78280        1.07980
C          1.61560       -1.71010        0.52780
C          1.44130       -1.78510       -1.00950
O          0.58310       -2.84640       -1.43210
C          0.75160       -0.45280       -1.34680
H          0.70060        2.03890        0.03870
H         -0.93690        1.81930       -0.59980
H         -0.62940        1.63560        1.13720
H         -1.52890       -0.75040        1.33210
H         -0.95910       -1.98710        0.09940
H          2.60800       -1.31140        0.77060
H          1.53190       -2.69760        0.99690
H          2.41280       -1.87650       -1.51490
H          0.97530       -3.67630       -1.14210
H          0.07110       -0.57760       -2.19330
H          1.49830        0.29930       -1.62610
