13
gdb 1651	5.31175	1.93922	1.44607	1.3223	51.5	-0.2525	-0.0704	0.182	812.0644	0.098825	-381.634033	-381.62598	-381.625036	-381.66722	26.209
C          0.12440        1.40950        0.12920
O          0.13090       -0.02460        0.06990
C          0.83910       -0.54940       -0.92880
O          1.45300        0.07890       -1.75650
C          0.79030       -2.09670       -0.91600
C          1.57600       -2.74780       -2.02650
O          0.16770       -2.69150       -0.07520
H          1.14060        1.79090        0.25680
H         -0.29620        1.82760       -0.78880
H         -0.49400        1.66650        0.98830
H          1.20850       -2.40370       -2.99850
H          2.62560       -2.44150       -1.97330
H          1.49010       -3.83150       -1.94750
