21
gdb 14748	10.78582	0.54337	0.52739	4.2679	80.61	-0.312	0.0382	0.3502	2071.9749	0.187946	-329.160617	-329.15068	-329.149736	-329.19628	34.431
C         -0.04900        1.58280        0.06470
C         -0.00450        0.05340        0.01440
C          0.70420       -0.48640       -1.23290
C          0.75280       -2.01690       -1.29040
C          1.46240       -2.54700       -2.53960
C          1.49930       -4.08820       -2.57580
C          2.17380       -4.61020       -3.76230
N          2.71020       -5.00460       -4.70690
H          0.96060        2.00840        0.06500
H         -0.57860        1.99210       -0.80280
H         -0.56020        1.93830        0.96460
H          0.50080       -0.32930        0.91110
H         -1.02700       -0.34550        0.05000
H          0.19950       -0.10490       -2.13130
H          1.72780       -0.08870       -1.27000
H          1.25900       -2.39990       -0.39330
H         -0.27050       -2.41610       -1.25520
H          0.95930       -2.18110       -3.44180
H          2.48870       -2.16470       -2.57990
H          2.01140       -4.47600       -1.68720
H          0.48040       -4.49240       -2.55010
