19
gdb 10530	2.76239	1.62216	1.18628	3.2457	68.55	-0.2429	0.0669	0.3098	1071.8443	0.16433	-402.150864	-402.141624	-402.14068	-402.185035	32.754
C         -0.18240        1.36480        0.15540
O         -0.27240       -0.03220        0.32810
C          0.89340       -0.59630        0.91560
C          0.73050       -2.09990        0.90670
C          1.02420       -2.78140       -0.41810
O          0.53580       -2.06140       -1.53620
C          0.92850       -2.84860        2.17440
N         -0.42790       -2.64360        1.64670
H          0.64180        1.63820       -0.52020
H         -1.12610        1.70130       -0.27980
H         -0.02900        1.88120        1.11580
H          1.78690       -0.30200        0.34380
H          1.01030       -0.21720        1.94430
H          2.11020       -2.86650       -0.55640
H          0.60950       -3.79960       -0.37550
H         -0.26130       -1.59670       -1.25580
H          1.28050       -3.87640        2.13980
H          1.24680       -2.29400        3.05360
H         -0.89680       -1.89140        2.14630
