22
gdb 7393	4.19791	0.94011	0.89492	2.267	75.12	-0.2561	0.0626	0.3187	1423.7731	0.197928	-387.350508	-387.340163	-387.339219	-387.385616	37.569
C          0.06040        1.60800       -0.07790
C          0.04910        0.07870       -0.01460
C         -1.36400       -0.51130       -0.02920
C         -1.37930       -2.04160        0.08760
O         -0.71790       -2.48930        1.26470
C         -2.80830       -2.61290        0.05430
C         -2.82430       -4.13460       -0.05840
O         -3.40910       -2.17490        1.27950
H          1.08210        2.00070       -0.06370
H         -0.42350        1.97400       -0.99080
H         -0.47480        2.04300        0.77370
H          0.61970       -0.32800       -0.86080
H          0.56150       -0.26530        0.88990
H         -1.95590       -0.09250        0.79470
H         -1.87860       -0.22390       -0.95700
H         -0.81780       -2.47080       -0.75230
H         -1.35050       -2.33870        1.97980
H         -3.34610       -2.17330       -0.80050
H         -2.21640       -4.57660        0.73510
H         -3.84700       -4.52330        0.01640
H         -2.42120       -4.45530       -1.02430
H         -4.20290       -2.69560        1.43180
