22
gdb 8240	4.4361	1.05942	1.02174	0.9882	79.37	-0.2403	0.0807	0.321	1293.6609	0.199084	-350.198185	-350.188945	-350.188	-350.23267	34.137
C          0.27220        1.34660        0.51960
C         -0.04120       -0.04810       -0.03080
C         -1.54140       -0.28590       -0.16670
O          0.51770       -0.23170       -1.33190
C          1.88230       -0.55050       -1.36100
C          2.33140       -2.00260       -1.01740
C          3.30460       -1.92010       -2.22620
C          2.45910       -0.73890       -2.77780
H          1.34940        1.51720        0.60350
H         -0.14480        2.11370       -0.14080
H         -0.16220        1.47340        1.51660
H          0.37900       -0.80590        0.64970
H         -1.97600        0.43730       -0.86430
H         -1.73560       -1.29010       -0.55250
H         -2.04210       -0.17810        0.80020
H          2.47630        0.17850       -0.79020
H          2.75030       -2.20320       -0.02850
H          1.51090       -2.69990       -1.21120
H          4.30570       -1.60090       -1.92370
H          3.40070       -2.80700       -2.85520
H          1.66970       -1.08950       -3.44860
H          2.97380        0.10580       -3.24070
