14
gdb 7686	4.3613	1.61997	1.53683	3.868	58.1	-0.2702	-0.0014	0.2688	843.1418	0.105377	-419.668053	-419.660811	-419.659866	-419.699205	27.422
C          0.03280        1.56140       -0.01690
C          0.08710        0.05420       -0.01750
O         -0.99660       -0.58110       -0.62340
C          1.32350       -0.74520       -0.18880
O          2.46010       -0.03910        0.35930
C          1.92610       -0.15970        1.64960
O          2.44200        0.16250        2.66840
C          0.65670       -0.79490        1.17170
H          0.95360        1.99740        0.37230
H         -0.11870        1.91990       -1.03960
H         -0.80150        1.91500        0.59960
H         -1.80500       -0.27770       -0.19480
H          1.50590       -1.51840       -0.92170
H          0.06100       -1.55270        1.65770
