22
gdb 11133	3.73795	1.15701	1.00208	1.4671	78.97	-0.2394	0.0879	0.3273	1291.1598	0.199324	-350.206204	-350.196836	-350.195892	-350.240839	34.021
C         -0.11880        1.39700        0.52930
C         -0.05980       -0.08760        0.15800
C         -1.42040       -0.64390       -0.22250
C         -1.59230       -2.17300       -0.34300
C         -2.70140       -1.99470        0.71540
C         -2.60120       -2.76730        2.01860
C         -3.59270       -2.26610        3.07260
O         -2.37030       -0.59090        0.87300
H          0.86190        1.76860        0.84080
H         -0.45350        2.00480       -0.31870
H         -0.82210        1.55370        1.35200
H          0.62550       -0.24560       -0.68590
H          0.33290       -0.66950        1.00100
H         -1.81760       -0.09610       -1.09090
H         -1.90080       -2.55640       -1.31660
H         -0.73000       -2.74320        0.01350
H         -3.71510       -2.09700        0.29830
H         -2.77430       -3.83050        1.80330
H         -1.57550       -2.68170        2.39820
H         -3.43470       -1.20110        3.26470
H         -4.62760       -2.39660        2.73720
H         -3.47640       -2.80590        4.01700
