22
gdb 11911	4.19285	1.39983	1.20385	0.2273	81.97	-0.2583	0.0874	0.3457	1104.2852	0.201547	-313.080842	-313.072666	-313.071722	-313.114165	32.025
C         -0.25470        1.49060        0.00280
C          0.08730        0.00340        0.03880
C          0.86540       -0.51130       -1.18690
C          1.38700       -1.89150       -0.74500
C          1.61270       -1.75440        0.77200
C          1.54990       -2.97170        1.65990
C          2.86700       -2.27070        1.42850
C          0.99780       -0.41840        1.20990
H          0.65530        2.09810       -0.07090
H         -0.88810        1.73430       -0.85700
H         -0.78910        1.80150        0.90710
H         -0.84730       -0.57200        0.10880
H          0.25710       -0.55320       -2.09570
H          1.70600        0.16590       -1.38980
H          0.62860       -2.65790       -0.94650
H          2.29320       -2.19110       -1.28070
H          1.08340       -2.87520        2.63550
H          1.39740       -3.93830        1.18870
H          3.60650       -2.76490        0.80590
H          3.28930       -1.69530        2.24690
H          1.78440        0.33760        1.34240
H          0.45920       -0.48870        2.16050
