13
gdb 5186	5.94199	1.49035	1.1915	1.7626	62.35	-0.2107	0.0033	0.214	928.6223	0.098141	-394.812716	-394.806114	-394.805169	-394.843746	24.255
N          0.20710        1.27270        0.00440
C          0.04360        0.00670        0.00150
N         -1.19620       -0.57230        0.01110
C         -2.40400        0.10500        0.02510
C         -2.69660        1.43290        0.03250
O         -4.07070        1.53290        0.04610
C         -4.50930        0.26440        0.04590
N         -3.57800       -0.63470        0.03380
H          1.19860        1.49880       -0.00420
H          0.84250       -0.74290       -0.00870
H         -1.27100       -1.57600        0.00850
H         -2.11710        2.33370        0.03000
H         -5.57700        0.11190        0.05570
