11
gdb 9159	8.89944	0.80513	0.74179	4.3662	68.18	-0.3021	-0.0963	0.2058	1396.0824	0.070846	-397.40396	-397.395895	-397.394951	-397.437314	26.29
C         -0.04400        1.36580        0.06570
O          0.01940       -0.06980       -0.01840
C          0.63150       -0.54670       -1.10690
O          1.11660        0.11100       -1.99120
C          0.64220       -1.99870       -1.09610
C          0.69630       -3.20280       -1.16840
C          0.74890       -4.56530       -1.23450
N          0.79260       -5.72450       -1.28890
H          0.96250        1.78990        0.07910
H         -0.59200        1.77200       -0.78750
H         -0.56590        1.57830        0.99740
