22
gdb 12276	2.78088	1.48268	1.24547	1.2808	77.65	-0.2591	0.0754	0.3345	1109.0476	0.199417	-350.19359	-350.184151	-350.183206	-350.227414	35.064
C          0.72250        1.44450       -0.29230
C          0.08770        0.09270        0.02470
C          0.58560       -1.09110       -0.85820
C          1.35890       -1.68340        0.35410
C          2.87010       -1.55250        0.26330
O          3.31030       -2.44610       -0.75190
C          0.61460       -0.67280        1.28960
C          1.37210        0.07620        2.38140
H          1.81480        1.38710       -0.34740
H          0.36880        1.81040       -1.26280
H          0.46710        2.19900        0.45990
H         -1.00030        0.21560        0.02810
H         -0.22000       -1.73830       -1.21330
H          1.20630       -0.82030       -1.71700
H          1.13730       -2.73440        0.56360
H          3.15780       -0.51700        0.02210
H          3.32850       -1.79940        1.23480
H          4.26250       -2.34900       -0.84450
H         -0.22780       -1.19330        1.75780
H          2.23420        0.62770        1.99430
H          0.71800        0.80040        2.87980
H          1.73860       -0.61390        3.14960
