16
gdb 1061	6.64589	1.81588	1.56812	1.7799	66.7	-0.1989	0.0515	0.2504	816.0269	0.138594	-288.683173	-288.676268	-288.675324	-288.714329	25.695
C          0.04690        1.55420       -0.14500
C         -0.01550        0.03960        0.11620
C         -1.40990       -0.51780        0.07120
C         -2.14270       -0.98160        1.14150
N         -3.37300       -1.38300        0.68150
C         -3.44440       -1.18640       -0.67350
C         -2.24560       -0.65130       -1.08040
H          1.07930        1.91840       -0.11450
H         -0.36900        1.80110       -1.12700
H         -0.53210        2.10250        0.60490
H          0.61410       -0.47400       -0.62210
H          0.42830       -0.17690        1.09520
H         -1.88600       -1.05930        2.18650
H         -4.10400       -1.77230        1.24950
H         -4.33250       -1.44580       -1.22720
H         -1.98600       -0.38510       -2.09440
