19
gdb 16660	2.84353	2.24622	1.69845	2.5489	69.99	-0.2239	0.0623	0.2863	854.3338	0.167031	-365.043943	-365.036451	-365.035507	-365.075132	29.725
C         -0.74030        1.26340        0.06370
C          0.04730       -0.04760        0.01930
C          0.98080       -0.20350       -1.17560
C          2.30560        0.47110       -1.13820
N          2.18930       -0.95710       -0.79090
C          2.08410       -1.19950        0.66100
C          0.97100       -0.30650        1.24400
O          1.57760        0.87220        1.77230
H         -0.06920        2.12630        0.10130
H         -1.36640        1.37070       -0.82730
H         -1.40660        1.30320        0.93380
H         -0.66950       -0.87940       -0.01800
H          0.53540       -0.46110       -2.13360
H          2.83280        0.65850       -2.06970
H          2.50030        1.18040       -0.34100
H          1.82610       -2.25500        0.79940
H          3.03810       -1.01220        1.16130
H          0.42230       -0.82340        2.04350
H          0.88210        1.43460        2.12770
