18
gdb 17541	4.27271	1.80512	1.68553	1.8236	70.54	-0.2565	0.0806	0.3372	844.1032	0.155513	-347.786904	-347.780281	-347.779337	-347.817392	26.964
C          0.00160        1.49360        0.00650
C          1.32250        0.76310       -0.00450
C          2.00930        0.55840        1.33860
C          0.90150        0.01670        2.24020
C          1.05740       -0.22530        3.67490
O          0.36120        0.93370        3.20840
C         -0.11080       -0.70820        1.35520
C          0.01880       -0.01570        0.00570
H         -0.30040        2.01100        0.91150
H         -0.29960        1.98570       -0.91180
H          1.93500        0.81280       -0.89760
H          2.81360       -0.18150        1.23890
H          2.43990        1.46860        1.76700
H          0.43950       -0.97560        4.16830
H          2.01640       -0.03340        4.15600
H          0.15850       -1.76780        1.25970
H         -1.11140       -0.65310        1.79480
H         -0.32540       -0.53770       -0.87990
