19
gdb 15349	3.32792	1.28565	1.01427	1.1783	77.8	-0.2268	0.0509	0.2776	1196.534	0.163374	-327.861867	-327.852816	-327.851872	-327.895942	33.078
C          0.56280        1.71320        0.10550
C         -0.05460        0.32360       -0.03060
N          0.54140       -0.38010       -1.16310
C          1.69020       -1.24380       -0.91070
C          0.37570       -1.82080       -1.31280
C         -0.42150       -2.68160       -0.33640
C         -1.86160       -2.61810       -0.56850
C         -3.04340       -2.55770       -0.77940
H          1.63710        1.64540        0.30690
H          0.42860        2.28440       -0.81720
H          0.09790        2.26320        0.92960
H          0.06410       -0.22010        0.92200
H         -1.13080        0.40370       -0.22000
H          2.51470       -1.17680       -1.61590
H          1.99350       -1.39340        0.12660
H          0.23840       -2.12620       -2.34890
H         -0.08200       -3.72040       -0.44330
H         -0.20040       -2.39960        0.69850
H         -4.08870       -2.50720       -0.95810
