14
gdb 20350	5.19542	2.23626	1.57855	2.6845	69.88	-0.2185	-0.0145	0.204	758.6824	0.111033	-341.6124	-341.606829	-341.605885	-341.641875	22.286
C         -0.04840        1.53030        0.01070
C          1.44370        1.84370       -0.00180
C          2.14800        0.70520       -0.01480
N          1.25710       -0.37900       -0.01220
N          1.42550       -1.70980       -0.02120
C          0.16950       -2.16730       -0.01190
C         -0.79710       -1.12780        0.00320
C         -0.04440        0.02730        0.00240
H         -0.54460        1.94600        0.89660
H         -0.56150        1.95570       -0.86080
H          1.85280        2.84240       -0.00020
H          3.21140        0.52330       -0.02590
H         -0.00600       -3.23330       -0.01620
H         -1.87000       -1.22680        0.01300
