22
gdb 17671	3.66654	1.41496	1.23277	0.1635	82.19	-0.2459	0.0931	0.339	1108.0551	0.199471	-313.050903	-313.041921	-313.040976	-313.08406	34.474
C         -0.12780        1.31090       -0.27950
C          0.19910       -0.13170        0.04050
C          1.62420       -0.63250        0.09580
C          0.78900       -0.60310        1.35750
C          1.16040        0.40560        2.43180
C          0.25870       -1.88620        1.94360
C          0.26690       -3.20990        1.22520
C          1.18640       -2.98710        2.40100
H          0.62010        2.00230        0.11850
H         -0.16700        1.46510       -1.36380
H         -1.10160        1.60330        0.13020
H         -0.50420       -0.84000       -0.39200
H          1.86780       -1.57860       -0.37570
H          2.41700        0.10600        0.01900
H          1.56230        1.33200        2.01450
H          0.29050        0.66710        3.04670
H          1.92060       -0.01370        3.10030
H         -0.60790       -1.72490        2.58280
H         -0.59060       -3.86070        1.35780
H          0.71300       -3.27390        0.23870
H          2.24320       -2.86620        2.18650
H          0.97520       -3.49960        3.33310
