14
gdb 20720	5.62064	1.57142	1.23749	3.5765	67.89	-0.234	-0.06	0.174	928.314	0.10904	-378.771056	-378.764241	-378.763296	-378.80206	25.471
C         -0.02290        1.53270       -0.00410
C         -0.00060        0.03020       -0.00850
N         -0.04860       -0.57170       -1.16560
N         -0.02780       -1.91270       -1.15680
C          0.03910       -2.78820       -0.06730
O          0.04920       -3.99530       -0.23240
C          0.09060       -2.07020        1.19830
C          0.07110       -0.71700        1.21700
H          0.87820        1.93960        0.46880
H         -0.08110        1.90720       -1.02700
H         -0.88240        1.91320        0.55950
H         -0.06640       -2.34440       -2.07100
H          0.14410       -2.67150        2.09820
H          0.10920       -0.17440        2.15720
