15
gdb 19243	3.23954	1.99972	1.58095	4.0424	64.67	-0.2763	0.0209	0.2972	828.5349	0.119431	-362.642952	-362.635753	-362.634809	-362.674418	26.959
O         -0.14330        1.43250        0.14560
C         -0.03700        0.04500        0.00720
C         -1.37770       -0.67470        0.04930
C         -2.23570       -0.23340       -1.10250
C         -1.15610       -1.24160       -1.35700
C          0.21530       -0.55570       -1.45050
C          0.44490        0.40060       -2.52180
N          0.64110        1.18890       -3.34510
H          0.71460        1.83450       -0.03020
H          0.69250       -0.38260        0.70630
H         -1.78550       -1.16320        0.92430
H         -3.24300       -0.63560       -1.10060
H         -2.15300        0.77730       -1.48850
H         -1.35500       -2.23810       -1.72830
H          1.03980       -1.27250       -1.42850
