11
gdb 3865	6.27053	2.81095	1.94175	4.9076	55.05	-0.2299	-0.0501	0.1798	601.249	0.081051	-335.635079	-335.62949	-335.628546	-335.664218	20.633
N          0.00190        1.36790        0.10700
C          0.00940        0.01260        0.03680
C         -1.18380       -0.75090        0.01730
N         -1.16420       -2.06600       -0.02090
N          0.01620       -2.70440       -0.03780
C          1.10770       -1.94700       -0.01870
N          1.18460       -0.61390        0.01410
H          0.87970        1.84160       -0.03310
H         -0.84250        1.87990       -0.07960
H         -2.16300       -0.27840        0.03240
H          2.05090       -2.48720       -0.03540
