19
gdb 3976	4.40233	1.16027	1.15896	1.016	75.8	-0.2397	0.0087	0.2484	1136.4623	0.163096	-365.021781	-365.012945	-365.012001	-365.055973	33.286
C         -0.42850        1.56550       -0.12820
C          0.02210        0.11330        0.01030
C         -1.14610       -0.85410       -0.16410
C          1.27460       -0.24500       -0.87810
C          2.04790       -0.49350        0.39750
C          0.88090       -0.16060        1.29970
N          3.25050       -0.85300        0.56350
O          3.55360       -0.96340        1.93590
H          0.41160        2.25700       -0.00220
H         -0.86730        1.74900       -1.11570
H         -1.18390        1.81640        0.62530
H         -1.60610       -0.74170       -1.15260
H         -0.81990       -1.89490       -0.06390
H         -1.92220       -0.67310        0.58840
H          1.14890       -1.12370       -1.51850
H          1.65350        0.57740       -1.49300
H          1.04460        0.70510        1.94950
H          0.54090       -0.99280        1.92440
H          4.47680       -1.23720        1.91670
