15
gdb 11256	5.21023	1.35641	1.17903	5.9645	67.65	-0.2337	0.0047	0.2384	1001.2383	0.120418	-358.860774	-358.853223	-358.852279	-358.893058	26.588
C         -0.05650        1.39640        0.06810
N          0.00000       -0.02260       -0.20820
C         -1.15970       -0.87540        0.05310
C         -0.49470       -2.29030        0.02690
N          0.96360       -2.05880        0.16200
C          1.11380       -0.79570        0.01880
C         -1.01060       -3.17650        1.07320
N         -1.44990       -3.85900        1.89510
H          0.92880        1.83790       -0.10180
H         -0.76760        1.88800       -0.60330
H         -0.35990        1.60820        1.10490
H         -1.59840       -0.65040        1.03570
H         -1.93490       -0.75750       -0.70820
H         -0.67850       -2.77860       -0.93900
H          2.08810       -0.31470        0.03290
