18
gdb 18076	4.53195	1.21745	1.13473	0.1964	80.78	-0.2267	0.0575	0.2842	1136.1298	0.153725	-310.617901	-310.609696	-310.608752	-310.652364	29.664
C         -0.00930        1.48350        0.00190
C         -0.02870        0.02750        0.02180
C         -0.03640       -1.17810        0.03350
C         -0.04470       -2.61500        0.04540
C         -0.44120       -3.44650        1.25300
C         -1.55130       -2.75090        2.04870
C         -2.44570       -2.75500        0.76360
C         -1.31200       -3.45110        0.00220
H          1.01710        1.86700       -0.01590
H         -0.52590        1.88160       -0.87890
H         -0.50000        1.90030        0.88860
H          0.76640       -3.07190       -0.51760
H          0.22740       -4.21150        1.63030
H         -1.96210       -3.38200        2.83940
H         -1.29550       -1.77380        2.46750
H         -3.32840       -3.38760        0.87690
H         -2.75150       -1.78020        0.37390
H         -1.43140       -4.22020       -0.75200
