16
gdb 14870	2.88234	1.77206	1.19938	3.6071	61.06	-0.2536	-0.0382	0.2154	976.398	0.129127	-420.852016	-420.843817	-420.842872	-420.885624	28.44
O          0.00540        1.31390       -0.10680
C          0.09190       -0.09360        0.01960
C         -1.30390       -0.65000        0.26120
O         -2.16560       -0.29540       -0.86120
C         -2.39090       -1.67380       -1.20800
C         -1.60660       -2.15210        0.04140
C         -0.50380       -3.15520       -0.16320
O          0.64210       -3.01660        0.18080
H         -0.64190        1.47980       -0.80320
H          0.53660       -0.55390       -0.87400
H          0.74820       -0.31080        0.86570
H         -1.70500       -0.23070        1.19080
H         -3.45680       -1.92300       -1.23630
H         -1.93630       -1.94010       -2.17170
H         -2.27730       -2.56740        0.80230
H         -0.83960       -4.09110       -0.66880
