18
gdb 5330	4.38451	1.406	1.38787	4.1238	72.69	-0.2176	0.0368	0.2544	992.412	0.155169	-344.028616	-344.020655	-344.019711	-344.062091	29.246
C         -0.00330        1.54880       -0.01210
C         -0.00950        0.01670        0.04610
C          0.77240       -0.52470        1.24870
N         -1.37950       -0.50690        0.02780
C         -1.93580       -1.30460       -0.94960
C         -3.22390       -1.54500       -0.54990
N         -3.48110       -0.91880        0.64590
C         -2.35840       -0.30940        0.95980
H          1.02370        1.91920       -0.08440
H         -0.56400        1.90750       -0.87920
H         -0.45340        1.97980        0.88760
H          0.45570       -0.36540       -0.86830
H          0.34640       -0.16530        2.19050
H          0.75720       -1.61770        1.26270
H          1.81360       -0.19180        1.20220
H         -1.36780       -1.61330       -1.81200
H         -3.97750       -2.13110       -1.05360
H         -2.19640        0.28600        1.84570
