17
gdb 7790	3.33255	1.91967	1.28201	4.7766	66.86	-0.2415	0.0473	0.2888	948.7163	0.143081	-401.022798	-401.015173	-401.014228	-401.055115	28.223
C         -0.00860        1.50470        0.08820
C         -0.00630       -0.00270       -0.09980
C          0.85780       -0.49380       -1.25090
C          0.86440       -2.01070       -1.20650
O          1.25630       -2.49130        0.08410
C          0.87730       -1.84520        1.22250
N          0.96900       -2.37570        2.36460
O          0.47150       -0.56110        1.13720
H          1.01060        1.87380        0.23590
H         -0.43630        1.99440       -0.79170
H         -0.60310        1.77630        0.96380
H         -1.03830       -0.35520       -0.25110
H          0.45590       -0.14630       -2.20800
H          1.87570       -0.10290       -1.14330
H         -0.13300       -2.40620       -1.44550
H          1.57880       -2.44660       -1.90880
H          1.33520       -3.32050        2.26740
