16
gdb 17857	5.17142	1.58209	1.48701	2.2141	64.22	-0.2367	0.0665	0.3032	869.8168	0.130965	-383.657125	-383.650426	-383.649481	-383.688253	25.146
C         -0.02780        1.44250       -0.10560
O          1.42690        1.46690       -0.15740
C          1.47000        0.05810        0.08380
C         -0.04300       -0.07510        0.04840
C          0.81750       -0.68180       -1.02840
C          0.89820       -0.45630       -2.53320
O          1.08420       -1.87700       -2.74610
C          0.96170       -2.16900       -1.33840
H         -0.38530        1.97670        0.78120
H         -0.48500        1.86990       -1.00580
H          2.24040       -0.32720        0.74340
H         -0.72400       -0.65400        0.65890
H         -0.01760       -0.08880       -3.01490
H          1.75410        0.13310       -2.88120
H          1.85520       -2.66660       -0.93860
H          0.08050       -2.78850       -1.12280
