14
gdb 1507	7.95399	1.34302	1.16571	2.5046	56.58	-0.269	-0.0751	0.1939	977.2543	0.111841	-361.728608	-361.720898	-361.719954	-361.760927	26.086
C          0.04760        1.51750       -0.11090
C         -0.00140        0.00760        0.01450
O          0.65150       -0.54970       -1.14170
C          0.70670       -1.88600       -1.20850
N          0.22990       -2.67160       -0.33520
C          1.41740       -2.32480       -2.47110
O          1.58260       -3.48580       -2.73890
H          1.08090        1.87330       -0.15160
H         -0.46830        1.85200       -1.01530
H         -0.44080        1.97570        0.75400
H          0.51140       -0.35190        0.91300
H         -1.02750       -0.37330        0.05420
H          0.41120       -3.63170       -0.63700
H          1.76950       -1.50000       -3.12190
