18
gdb 17059	3.86309	1.44811	1.25552	1.7124	68.17	-0.2382	0.0633	0.3014	1028.0581	0.152836	-384.86683	-384.858937	-384.857992	-384.899069	29.867
C         -0.18280        1.53480        0.01400
C          0.15200        0.04220       -0.09100
C          0.81990       -0.49580        1.16310
C         -0.05350       -0.84290        2.40370
O         -0.59880       -2.01500        1.68600
C          0.85670       -2.03220        1.40560
C          1.07520       -1.79640        2.91530
O          2.32600       -1.31290        3.31370
H          0.71570        2.13380        0.20070
H         -0.64190        1.90260       -0.90870
H         -0.88460        1.72800        0.83270
H         -0.75560       -0.53650       -0.28590
H          0.82330       -0.11990       -0.94440
H          1.75350        0.02040        1.40190
H         -0.75970       -0.22680        2.96270
H          1.23650       -2.83170        0.76820
H          0.69620       -2.61130        3.54090
H          2.29510       -1.13430        4.25850
