18
gdb 13254	7.76866	0.83996	0.79298	2.892	69.54	-0.2559	-0.0271	0.2288	1413.8217	0.151791	-384.926029	-384.917438	-384.916494	-384.960635	29.77
O          0.09030        0.07750        0.81090
C          0.14440        1.14020        0.25180
C          1.43790        1.77700       -0.22570
O          1.11920        2.97600       -0.88480
C          2.24020        3.70240       -1.32340
C          3.01700        3.21600       -2.58030
C          3.08020        4.70110       -3.03530
C          1.90590        5.00950       -2.06490
H         -0.75780        1.75500        0.03850
H          2.08850        1.94860        0.64980
H          1.96360        1.06320       -0.88020
H          2.92840        3.87700       -0.48120
H          3.95580        2.67620       -2.43840
H          2.35520        2.62870       -3.22400
H          4.00880        5.18490       -2.72120
H          2.92320        4.90790       -4.09510
H          0.93720        4.91090       -2.56250
H          1.92380        5.94110       -1.49580
