16
gdb 9710	3.17044	1.8245	1.62856	3.3473	70.47	-0.2395	-0.0068	0.2327	870.6351	0.131213	-342.799133	-342.79148	-342.790536	-342.830945	28.574
C         -0.02630        1.52820       -0.01900
C          0.00080       -0.01050        0.00970
N          0.76570       -0.55250       -1.13030
C          1.57990       -1.69470       -0.68430
C          1.62540       -1.50660        0.80660
C          0.75480       -0.58490        1.19900
C         -1.39690       -0.51910        0.02300
N         -2.47980       -0.92530       -0.00480
H          1.00190        1.89590       -0.00920
H         -0.51830        1.88490       -0.92790
H         -0.56660        1.92820        0.84440
H          0.17370       -0.77100       -1.92090
H          1.14520       -2.67610       -0.93840
H          2.57700       -1.66030       -1.14360
H          2.28440       -2.07590        1.45000
H          0.54980       -0.25910        2.21010
