14
gdb 10580	2.63401	1.91074	1.32416	4.1654	70.37	-0.2412	0.0073	0.2485	928.0102	0.106054	-341.541597	-341.53342	-341.532476	-341.57388	30.108
N          0.15240        1.41290        0.01760
C          0.03880        0.00030        0.06090
C         -0.46950       -0.69510        1.26240
C         -1.36510       -0.74450        0.00670
C         -2.53870        0.07560       -0.02180
C         -3.48930        0.81230       -0.04550
C         -1.41150       -1.98270       -0.72220
N         -1.40530       -2.97730       -1.31440
H          0.11660        1.75350       -0.93810
H         -0.59840        1.86540        0.52880
H          0.80100       -0.51360       -0.51550
H         -0.00860       -1.62830        1.56390
H         -0.85810       -0.09370        2.07710
H         -4.35040        1.43380       -0.06490
