17
gdb 14266	3.09633	2.65007	1.86403	2.4492	68.42	-0.2399	0.0288	0.2687	760.497	0.145321	-363.855633	-363.84921	-363.848266	-363.886288	25.18
C          0.00470        1.50170       -0.17640
C          1.53640        1.45810        0.06690
C          1.33840        0.10690        0.80340
C         -0.00900       -0.04270        0.03390
N          0.10900       -0.79310       -1.19560
C          0.99540       -0.55900       -2.06350
O          2.01040        0.33830       -2.15980
C          2.36030        1.35410       -1.20260
H         -0.51920        2.02650        0.62710
H         -0.35570        1.86750       -1.14140
H          1.96450        2.27860        0.65190
H          2.08050       -0.68060        0.64860
H          1.18070        0.24860        1.87610
H         -0.84930       -0.44700        0.60210
H          1.02490       -1.16660       -2.96770
H          2.31470        2.30350       -1.75050
H          3.41040        1.16660       -0.94650
