16
gdb 16323	3.13991	2.01299	1.41193	3.3324	65.43	-0.2473	-0.0169	0.2304	885.2223	0.130301	-383.726252	-383.718725	-383.71778	-383.758443	27.966
O          0.00780        1.49980        0.24030
C          0.06920        0.10760       -0.02130
C         -1.31040       -0.49650        0.00620
C         -1.97560       -1.13730        1.21630
C         -1.89640       -1.94110       -0.03360
C         -3.02120       -1.50450       -0.99060
C         -2.36190       -0.10240       -0.97790
O         -2.47720        0.87810       -1.66690
H         -0.57930        1.87770       -0.42690
H          0.53980       -0.09160       -0.99730
H          0.71030       -0.33370        0.74880
H         -1.27190       -1.39080        2.00340
H         -2.93530       -0.77790        1.57870
H         -1.33120       -2.86010       -0.11500
H         -2.96430       -1.93770       -1.99330
H         -4.04540       -1.59540       -0.61710
