16
gdb 15036	2.20765	1.84078	1.10367	3.2673	66.89	-0.2497	-0.0538	0.1958	1057.4334	0.127669	-383.736135	-383.727565	-383.726621	-383.77083	29.265
O          0.17660       -0.06380        0.19050
C          0.12760        1.13270        0.08930
C          1.34580        2.03030       -0.07950
C          1.22810        2.88440       -1.33450
O          2.04020        2.90230       -2.22020
C          1.44840        2.95360        1.13560
C          2.12780        2.46620        2.39080
C          2.78850        3.51800        1.53590
H         -0.84340        1.67760        0.14120
H          2.23370        1.39970       -0.16900
H          0.32270        3.53370       -1.36760
H          0.58860        3.60470        1.27210
H          1.70770        2.76290        3.34510
H          2.54540        1.46540        2.37980
H          3.65210        3.22700        0.94790
H          2.82260        4.53750        1.90260
