13
gdb 16918	4.04672	2.33272	2.12441	2.5532	57.95	-0.2653	-0.0279	0.2374	675.4613	0.097876	-398.59207	-398.586623	-398.585679	-398.621468	22.048
N         -0.07180        1.25200        0.01850
C         -0.01830       -0.00550        0.00260
O          1.09450       -0.80320        0.00030
C          0.52940       -2.16710       -0.00360
O         -0.60020       -2.02270       -0.82000
C         -1.19770       -0.98690       -0.00790
C         -1.16890       -1.62520        1.38540
C         -0.07420       -2.38510        1.38540
H          0.86610        1.65690        0.03490
H          1.26790       -2.85240       -0.40980
H         -2.13210       -0.61800       -0.41730
H         -1.84590       -1.38670        2.19210
H          0.38040       -2.94720        2.18760
