20
gdb 18107	3.38535	2.16201	1.65583	0.1489	78.43	-0.2337	0.0313	0.265	861.7542	0.18112	-311.902658	-311.895969	-311.895025	-311.933656	27.163
C         -0.10610        1.35420        0.19510
C          1.29810        1.97440        0.10270
C          2.26910        0.80860        0.41000
C          2.65080        0.66640        1.91490
C          2.02930       -0.63820        2.34210
C          1.41020       -1.26000        1.34170
C          1.46960       -0.49800        0.04090
C          0.08250       -0.01930       -0.46650
H         -0.39380        1.22700        1.24540
H         -0.87830        1.96220       -0.28530
H          1.46570        2.33710       -0.91890
H          1.44130        2.82810        0.77230
H          3.17630        0.90220       -0.19090
H          3.73900        0.65830        2.06120
H          2.27740        1.50810        2.51410
H          2.10060       -1.00950        3.35940
H          0.89460       -2.21210        1.42230
H          1.97080       -1.09260       -0.73190
H         -0.71690       -0.72860       -0.23090
H          0.10370        0.09560       -1.55710
