24
gdb 13713	5.30739	0.74969	0.70503	0.1092	86.57	-0.2609	0.092	0.3528	1725.4016	0.222597	-314.271811	-314.261755	-314.260811	-314.307236	36.586
C         -0.25160        1.58330        0.16190
C          0.07650        0.09880       -0.01970
C          0.70240       -0.53700        1.22590
C          1.03940       -2.02410        1.05100
C          1.66200       -2.63220        2.29170
C          0.80200       -3.17790        3.41000
C          1.65570       -4.11580        2.58880
C          1.03170       -5.14300        1.66850
H          0.64980        2.16230        0.39240
H         -0.69830        2.00950       -0.74190
H         -0.95830        1.73430        0.98570
H         -0.83800       -0.44880       -0.28460
H          0.75880       -0.02440       -0.87140
H          1.61600        0.01260        1.49320
H          0.02090       -0.42030        2.07930
H          0.12560       -2.56770        0.78230
H          1.72360       -2.14070        0.19850
H          2.56170       -2.11170        2.61480
H          1.07600       -2.97510        4.43990
H         -0.27050       -3.20830        3.23740
H          2.55270       -4.47570        3.08760
H          0.10410       -4.78040        1.21680
H          1.71140       -5.41820        0.85390
H          0.78830       -6.05830        2.21970
