18
gdb 20792	3.06283	1.78144	1.23535	2.62	74.17	-0.2225	0.0283	0.2508	1016.6003	0.155018	-344.021458	-344.013026	-344.012082	-344.055162	30.106
C          0.01950        1.64100        0.14930
C          0.01710        0.10770        0.01540
C         -1.35950       -0.48960       -0.01320
C         -2.15450       -0.75900       -1.11750
C         -1.92450       -0.57330       -2.58200
N         -3.31660       -1.26450       -0.62320
N         -3.34290       -1.35170        0.72120
C         -2.15750       -0.87890        1.08990
H          1.04170        2.03250        0.18180
H         -0.49720        2.10940       -0.69460
H         -0.49420        1.95310        1.06380
H          0.56500       -0.17370       -0.89240
H          0.57970       -0.32520        0.85110
H         -2.32930       -1.40950       -3.16250
H         -2.38800        0.34600       -2.96010
H         -0.85440       -0.51090       -2.79470
H         -4.11370       -1.58490       -1.14700
H         -1.90140       -0.83770        2.13970
