22
gdb 11670	3.20169	1.63763	1.36203	0.2477	82.6	-0.2784	0.0924	0.3708	1045.0073	0.200736	-313.03203	-313.023679	-313.022735	-313.064535	32.534
C          0.03400        1.83870        0.75710
C         -0.01340        0.31540        0.59060
C          0.81470       -0.42980        1.60960
C          2.35960       -0.34550        1.83290
C          1.84650       -1.37450        2.87760
C          0.68920       -0.37900        3.16940
C          0.98330       -1.98760        1.73060
C         -0.19700       -2.90770        2.00660
H          1.05730        2.21600        0.65930
H         -0.57980        2.33790        0.00120
H         -0.33770        2.14030        1.74200
H         -1.05440       -0.02870        0.65730
H          0.33340        0.04300       -0.41540
H          2.99190       -0.73270        1.02770
H          2.74720        0.59730        2.22900
H          2.44660       -1.91600        3.61090
H          0.97560        0.56300        3.64600
H         -0.22420       -0.77250        3.61870
H          1.59030       -2.40910        0.91890
H         -0.84660       -2.55560        2.81200
H         -0.81580       -3.01920        1.10890
H          0.15550       -3.90800        2.28220
