18
gdb 19697	4.51453	1.56117	1.4616	1.6822	70.44	-0.2413	0.076	0.3173	916.4801	0.155272	-347.741298	-347.734347	-347.733403	-347.772519	27.431
O          0.50310        0.57980       -0.82840
C         -0.01070        0.34390        0.47760
C         -1.39920       -0.27930        0.44110
C         -1.61250       -1.70700       -0.05960
C         -1.47340       -2.65490        1.14580
C         -1.17770       -1.80770        2.38070
C         -2.12000       -0.74730        1.74410
C         -2.76590       -1.91760        0.88990
H         -0.10520        1.17570       -1.27750
H          0.70890       -0.32980        0.95040
H         -0.03150        1.27210        1.07400
H         -2.07720        0.39250       -0.10440
H         -1.50890       -2.08020       -1.07000
H         -1.27440       -3.70820        0.99450
H         -1.63580       -2.24790        3.27110
H         -0.14570       -1.52120        2.61180
H         -2.65210       -0.03120        2.36750
H         -3.78070       -2.25480        0.73840
