18
gdb 12127	3.9863	1.66861	1.66508	3.0301	72.46	-0.1938	0.0788	0.2726	898.199	0.153008	-343.883619	-343.876001	-343.875057	-343.914836	30.127
C         -0.06900        1.54310        0.02360
C          0.08070        0.05550        0.01200
N         -0.82710       -0.86630        0.73390
C          0.63660       -0.89770        0.99980
C          1.35730       -1.68840       -0.14820
C          2.71370       -2.30510       -0.02380
N          0.31970       -2.17060       -1.08930
C          0.77440       -0.75470       -1.13900
H          0.84830        2.03440       -0.32100
H         -0.88570        1.86650       -0.63310
H         -0.28430        1.90830        1.03370
H         -1.23710       -0.32070        1.49430
H          1.03930       -0.72610        1.99100
H          2.67310       -3.24720        0.53630
H          3.14040       -2.51780       -1.01010
H          3.40440       -1.63590        0.50200
H          0.82030       -2.65090       -1.83950
H          1.20410       -0.32560       -2.03640
