11
gdb 3547	6.0735	2.96579	2.56656	3.4963	49.42	-0.2327	-0.0076	0.2251	528.1068	0.078607	-343.1903	-343.185401	-343.184457	-343.218829	19.009
O          0.03050        0.06510       -0.02780
C         -0.00370        1.25660        0.06850
C         -1.08610        2.29390        0.04370
C         -0.40870        3.53750        0.62790
O          0.86500        3.16180        1.15850
C          1.05160        2.38910       -0.06060
C         -0.09410        3.19820       -0.77390
H         -2.15390        2.18660       -0.08120
H         -0.95630        4.35260        1.08210
H          2.08510        2.23720       -0.35720
H         -0.22270        3.64860       -1.74600
