17
gdb 15868	2.39165	2.2381	1.39798	3.0166	68.45	-0.2657	0.0195	0.2851	930.5686	0.14128	-363.871192	-363.862866	-363.861922	-363.904232	30.01
C          0.17590        1.52900       -0.20920
C          0.05720        0.04680        0.06250
O          0.85290       -0.75660       -0.83300
C          1.41650       -1.53030        0.24600
C          2.92050       -1.65540        0.16130
C          0.76720       -0.58150        1.30690
C          1.67200        0.28390        2.04150
N          2.39590        0.97530        2.62070
H          1.21190        1.86590       -0.12480
H         -0.17910        1.74170       -1.22210
H         -0.43640        2.09930        0.49690
H         -0.99560       -0.26680        0.02790
H          0.95050       -2.52460        0.29060
H          3.40110       -0.67410        0.17070
H          3.30530       -2.24190        1.00190
H          3.19020       -2.16750       -0.76730
H          0.09660       -1.07750        2.01090
