20
gdb 9558	2.83919	1.7182	1.50409	2.0936	71.03	-0.2435	0.0736	0.3171	981.987	0.174514	-386.117602	-386.108317	-386.107373	-386.151535	33.539
C         -0.04780        1.42040       -0.03260
O          0.29690        0.05350       -0.10430
C          0.76960       -0.52530        1.09350
C          2.08960        0.07610        1.56330
C         -0.29330       -0.74090        2.20350
O         -0.13010       -2.16900        2.13830
C          0.76840       -2.07880        1.00280
C          0.19910       -2.72500       -0.24410
H          0.82760        2.06980        0.10470
H         -0.52230        1.67550       -0.98320
H         -0.76200        1.62410        0.77930
H          1.97990        1.12320        1.86220
H          2.46650       -0.47570        2.42920
H          2.83610        0.02090        0.76430
H         -0.05480       -0.34220        3.19720
H         -1.30650       -0.42740        1.92020
H          1.74060       -2.52550        1.25230
H         -0.74560       -2.26030       -0.53190
H          0.89880       -2.62780       -1.08030
H          0.03000       -3.78980       -0.05560
