22
gdb 17345	3.94264	1.22792	1.04183	0.	83.25	-0.2392	0.0899	0.3292	1229.2093	0.199791	-313.049068	-313.040015	-313.03907	-313.082912	34.125
C         -0.09690        1.58100       -0.10240
C         -0.02010        0.07380        0.00740
C          1.27530       -0.66270       -0.23880
C          0.67740       -0.63630        1.15130
C          1.35010        0.10150        2.26690
C          0.75210        0.12800        3.65700
C          2.04750       -0.60860        3.41080
C          2.12430       -2.11580        3.52060
H          0.83320        2.06300        0.21190
H         -0.28530        1.88430       -1.13840
H         -0.90530        1.98750        0.51580
H         -0.91370       -0.43030       -0.35330
H          1.26240       -1.59000       -0.80170
H          2.16300       -0.05880       -0.40490
H          0.19380       -1.55790        1.46220
H          1.83370        1.02320        1.95600
H          0.76510        1.05530        4.21990
H         -0.13560       -0.47600        3.82310
H          2.94110       -0.10440        3.77150
H          1.19420       -2.59780        3.20640
H          2.93270       -2.52230        2.90240
H          2.31270       -2.41900        4.55660
