17
gdb 4837	4.53463	1.40962	1.15401	1.7938	71.7	-0.2238	0.0126	0.2364	1073.6756	0.142397	-363.917048	-363.908929	-363.907985	-363.95018	28.895
C          0.31820        1.46200       -0.15500
C         -0.06470        0.00160        0.13940
C          0.57750       -0.53750        1.37080
N          0.01890       -0.93830        2.46820
C          1.08080       -1.32580        3.27910
C          2.25060       -1.13620        2.62370
C          3.68350       -1.35140        2.94240
O          1.93770       -0.62600        1.38700
H          1.39950        1.56400       -0.28210
H         -0.16730        1.80710       -1.07220
H          0.00910        2.11900        0.66330
H         -1.14410       -0.09480        0.27790
H          0.21260       -0.62710       -0.71600
H          0.92460       -1.71240        4.27390
H          4.15090       -2.05510        2.24420
H          4.25240       -0.41590        2.89570
H          3.77840       -1.75840        3.95170
