20
gdb 9557	2.63447	1.7381	1.62589	2.5271	70.88	-0.2432	0.0786	0.3217	961.1698	0.175433	-386.123431	-386.114473	-386.113529	-386.156384	33.701
C          0.00710        1.23100        0.19160
O         -0.02610       -0.14620       -0.11380
C          0.69310       -0.57340       -1.27220
C          0.18340        0.07450       -2.54830
C          2.22680       -0.63150       -0.99720
C          2.04680       -2.06520       -0.42900
C          0.67930       -2.13430       -1.16610
O         -0.42710       -2.72990       -0.55750
H          1.03350        1.61860        0.25200
H         -0.54960        1.83230       -0.53930
H         -0.46630        1.34850        1.16970
H          0.39130        1.14910       -2.58120
H          0.66900       -0.37920       -3.41730
H         -0.89760       -0.07190       -2.64350
H          2.80060       -0.61430       -1.92800
H          2.63480        0.12700       -0.32600
H          2.79690       -2.81700       -0.68240
H          1.90030       -2.05490        0.65350
H          0.79230       -2.58550       -2.15720
H         -0.71130       -2.10710        0.12490
