14
gdb 18634	3.28282	2.12171	1.83977	3.9973	56.77	-0.2623	-0.0022	0.2601	757.7269	0.108341	-419.697897	-419.691354	-419.690409	-419.728568	24.931
O          0.11180        1.36700        0.03220
C         -0.03330       -0.01370       -0.01650
C         -1.35030       -0.71360        0.04050
C         -2.54490        0.15400       -0.31660
O         -2.25650        0.73440       -1.60360
C         -1.23940        0.05220       -2.24220
O         -1.02010        0.19760       -3.40700
C         -0.51980       -0.78450       -1.24030
H         -0.54630        1.78440       -0.53700
H          0.79170       -0.48370        0.50720
H         -1.50390       -1.57240        0.68260
H         -3.46580       -0.43260       -0.39530
H         -2.70640        0.97390        0.39010
H          0.01500       -1.65400       -1.59660
