14
gdb 10574	2.69284	1.92713	1.3026	1.7928	71.2	-0.2599	-0.004	0.2559	946.8785	0.102762	-345.310787	-345.302355	-345.301411	-345.34327	30.975
C         -0.06680        1.53550       -0.06950
C         -0.02930        0.03810        0.06240
O          1.21610       -0.61500       -0.14130
C          0.65300       -0.66750        1.19110
C          1.35500        0.08460        2.20450
C          1.92680        0.69800        3.06480
C          0.16140       -1.95980        1.61000
C         -0.25870       -3.02850        1.96260
H          0.76660        1.99860        0.46180
H         -0.00920        1.81540       -1.12650
H         -1.00650        1.92680        0.33330
H         -0.87860       -0.49830       -0.36410
H          2.43930        1.23640        3.82370
H         -0.62270       -3.97620        2.27490
