13
gdb 20623	3.33033	1.95627	1.24186	5.1307	63.9	-0.2701	-0.08	0.19	905.7458	0.094884	-398.60535	-398.598122	-398.597177	-398.637413	25.019
C         -0.01370        1.53570        0.06280
C          0.01240        0.04160        0.00190
C          0.00110       -0.79790       -1.08320
O          0.03690       -2.08590       -0.67530
N          0.07270       -2.12070        0.69850
C          0.05830       -0.87010        1.09370
C         -0.04160       -0.52500       -2.52290
O         -0.04580       -1.36960       -3.38530
H          0.88830        1.92370        0.54820
H         -0.07690        1.98400       -0.93060
H         -0.87180        1.88850        0.64450
H          0.08080       -0.65200        2.15240
H         -0.07040        0.55830       -2.76370
