14
gdb 2647	19.31727	0.85167	0.82824	4.3643	67.09	-0.2613	0.0264	0.2878	1313.7438	0.111997	-287.438379	-287.429997	-287.429052	-287.473044	27.168
C         -0.01220        1.48200        0.01810
C          0.00260        0.02790       -0.05170
C          0.03010       -1.17410       -0.11270
C          0.02560       -2.62940       -0.17740
C         -1.37630       -3.21140        0.14350
C         -1.39410       -4.67080        0.08180
N         -1.38710       -5.82500        0.02790
H          0.68430        1.85000        0.77920
H          0.27490        1.92920       -0.93980
H         -1.00960        1.85650        0.27310
H          0.33200       -2.97010       -1.17310
H          0.75340       -3.04710        0.52770
H         -1.68980       -2.89210        1.14240
H         -2.11220       -2.81490       -0.56300
