18
gdb 10828	4.53298	1.46263	1.16479	4.5842	68.11	-0.2567	0.014	0.2707	1029.7701	0.154878	-384.993988	-384.986232	-384.985288	-385.02618	28.933
C         -0.17910        1.53430        0.04020
C          0.02110        0.01760       -0.01600
C          0.74960       -0.44380       -1.28050
C          0.89090       -1.96750       -1.26460
C          1.34410       -2.57060        0.05930
O          1.81270       -3.67330        0.14110
O          1.12810       -1.86350        1.19610
C          0.82610       -0.45820        1.18920
H          0.78180        2.06030        0.00750
H         -0.77560        1.87840       -0.81010
H         -0.69620        1.83780        0.95640
H         -0.96290       -0.47130        0.01630
H          0.21630       -0.12340       -2.18190
H          1.74030        0.02950       -1.31720
H         -0.08240       -2.43110       -1.47390
H          1.57460       -2.33640       -2.03240
H          1.77680        0.09160        1.23970
H          0.28910       -0.27890        2.12490
