17
gdb 2396	5.22278	2.01577	1.79133	1.778	64.5	-0.2541	0.0794	0.3335	777.8389	0.147746	-309.696507	-309.689415	-309.688471	-309.727433	26.578
C         -0.15650        1.54620        0.15930
C         -0.12670        0.04100        0.19460
O          1.07200       -0.59420       -0.28920
C          0.75150       -0.72750        1.08350
C          1.61590       -0.23860        2.25060
C          1.00520       -1.39450        3.10020
C          0.47310       -2.05560        1.79260
H          0.77940        1.96460        0.53810
H         -0.30020        1.90420       -0.86550
H         -0.98400        1.92910        0.76700
H         -1.04230       -0.45010       -0.14350
H          2.68020       -0.38820        2.04580
H          1.46660        0.78530        2.60230
H          1.70270       -1.98350        3.69770
H          0.19630       -1.04780        3.74730
H         -0.55410       -2.42860        1.78760
H          1.13690       -2.84460        1.42630
