20
gdb 20024	4.72601	1.11628	0.98589	0.6192	76.93	-0.2214	0.0772	0.2986	1242.1221	0.177294	-345.122626	-345.114072	-345.113128	-345.156185	31.475
C         -0.21250        1.73720       -0.66540
C          0.07190        0.39560        0.00540
N         -1.17820       -0.32960        0.22130
C         -1.60430       -1.28150       -0.79780
C         -1.15300       -1.75590        0.54390
C          0.11040       -2.54370        0.70250
C          0.54090       -2.96730        2.06030
N          0.02580       -3.95970        1.10190
H          0.71210        2.30760       -0.79760
H         -0.66440        1.59110       -1.65200
H         -0.90640        2.32800       -0.06130
H          0.79590       -0.17070       -0.60360
H          0.53630        0.55700        0.98550
H         -2.65820       -1.26850       -1.06420
H         -0.92760       -1.47030       -1.63200
H         -1.91730       -2.03870        1.27150
H          0.87870       -2.36240       -0.04400
H          1.59710       -3.06290        2.29570
H         -0.08640       -2.67730        2.89990
H         -0.93830       -4.19270        1.33210
