16
gdb 5332	6.39103	1.59322	1.30713	3.3798	72.94	-0.2068	0.0468	0.2536	935.3847	0.132359	-342.795786	-342.788605	-342.78766	-342.827983	26.027
C         -0.26030        1.50350        0.12490
C          0.05890        0.05170       -0.03830
C         -0.02400       -0.70150       -1.19900
N          0.40440       -1.94950       -0.80370
C          0.65430       -3.39950       -0.92140
C          1.02400       -3.36630        0.61680
C          0.68750       -1.88790        0.51100
N          0.50250       -0.70660        1.04420
H          0.62240        2.07000        0.44190
H         -0.62280        1.93430       -0.81260
H         -1.02900        1.65290        0.89070
H         -0.31630       -0.44590       -2.20300
H         -0.23640       -3.98140       -1.17240
H          1.47070       -3.65460       -1.60200
H          0.36690       -3.96390        1.25300
H          2.06450       -3.61200        0.84190
