15
gdb 2277	7.78887	1.55137	1.368	4.3603	62.09	-0.2384	0.0225	0.261	862.3786	0.126011	-304.681903	-304.675041	-304.674096	-304.71314	24.292
N          0.07610       -1.19020       -0.17940
C          0.03860       -0.03740       -0.11840
C         -0.01310        1.42580       -0.01530
N          1.31150        1.99590        0.09490
C          2.07640        1.79900        1.34720
C          2.60330        3.24720        1.20230
C          1.41830        3.46450        0.23060
H         -0.49660        1.81830       -0.91820
H         -0.67130        1.68210        0.83900
H          1.42880        1.68160        2.23150
H          2.79260        0.97360        1.32040
H          2.62670        3.86070        2.10250
H          3.57080        3.29410        0.70060
H          1.59830        3.99890       -0.70730
H          0.54890        3.91540        0.73750
