16
gdb 17849	4.82076	1.79031	1.54799	1.871	64.11	-0.2432	0.0731	0.3162	828.761	0.130758	-383.635809	-383.629324	-383.62838	-383.666676	24.911
O          0.01700        1.36540       -0.44360
C          1.35370        1.55770        0.06070
C          1.34880        0.14840        0.67190
C         -0.06600        0.02700        0.10250
C          2.43160       -0.94580        0.57030
C          3.24850       -0.23070        1.67220
C          1.76140       -0.28260        2.09450
O          1.70670       -1.69290        1.63040
H          2.07990        1.73030       -0.74480
H          1.41190        2.39100        0.77360
H         -0.87270       -0.06900        0.83910
H         -0.20520       -0.72980       -0.67880
H          2.77090       -1.50720       -0.30110
H          3.91190       -0.87850        2.24570
H          3.68970        0.74280        1.44260
H          1.29620       -0.04790        3.05280
