10
gdb 3847	5.8575	3.03769	2.00033	3.4961	52.74	-0.2636	-0.1042	0.1594	578.1077	0.067602	-355.457663	-355.452261	-355.451316	-355.487684	19.151
N         -0.03360        1.29070        0.00960
C         -0.04760        0.02950        0.00310
O          1.17470       -0.67710       -0.00780
N          1.23740       -2.05380       -0.01610
C          0.11100       -2.67080       -0.01290
C         -1.15770       -1.96910       -0.00110
N         -1.23940       -0.68970        0.00650
H          0.92510        1.64010        0.00560
H          0.17000       -3.75370       -0.01940
H         -2.08360       -2.54350        0.00140
