13
gdb 11198	5.60167	1.33864	1.08765	4.321	65.74	-0.2413	-0.0598	0.1815	990.3572	0.095968	-398.66427	-398.657383	-398.656439	-398.695638	25.048
O         -0.11260       -0.03600        0.00140
C         -0.03440        1.17610        0.01060
C          1.20690        1.91880        0.00230
C          1.31470        3.26730        0.01170
N          2.63330        3.66930       -0.00040
C          3.50790        2.57030       -0.01860
O          4.70850        2.64580       -0.03280
C          2.59720        1.33610       -0.01860
H         -0.94840        1.81320        0.02600
H          0.52080        4.00260        0.02660
H          2.96230        4.62150        0.00300
H          2.81730        0.70790        0.85070
H          2.79720        0.72240       -0.90300
