14
gdb 585	13.64625	1.58265	1.55333	0.1421	63.06	-0.2264	0.0572	0.2837	812.7972	0.118893	-233.262752	-233.255758	-233.254814	-233.294462	23.778
C         -0.00160        1.47260        0.00270
C          0.00830        0.01690        0.02390
C          0.01740       -1.18830        0.04120
C          0.03480       -2.62290        0.05810
C         -0.52100       -3.38570        1.25050
C         -1.26150       -3.41000       -0.05410
H          0.92650        1.86790       -0.42550
H         -0.83200        1.86130       -0.59790
H         -0.10030        1.88850        1.01190
H          0.89750       -3.07540       -0.42310
H          0.01090       -4.27740        1.56290
H         -0.93490       -2.79730        2.06060
H         -2.17850       -2.83810       -0.13040
H         -1.24270       -4.31850       -0.64550
