18
gdb 8392	3.87076	1.66987	1.44818	2.737	72.66	-0.2368	-0.0155	0.2213	928.9452	0.153563	-347.776311	-347.768596	-347.767651	-347.80969	28.634
C         -0.00340        1.47210       -0.03980
C          0.01020       -0.04530        0.00640
O          0.01600       -0.66050        1.04980
C          0.01610       -0.76090       -1.31440
C          1.08870       -0.66080       -2.45360
C          0.02370       -1.67580       -2.95780
C          0.03070       -2.29800       -1.53050
C         -1.05990       -0.68150       -2.45200
H          0.87290        1.84480       -0.58190
H         -0.88620        1.82910       -0.58180
H         -0.00680        1.87240        0.97470
H          1.15290        0.29150       -2.98720
H          2.07870       -1.05870       -2.21550
H          0.02810       -2.20980       -3.90810
H          0.93920       -2.82130       -1.22380
H         -0.86710       -2.83870       -1.22250
H         -2.04170       -1.09830       -2.21240
H         -1.14320        0.26940       -2.98550
