19
gdb 6019	2.62789	1.74701	1.38523	3.2651	71.27	-0.2952	0.0185	0.3137	996.9972	0.16265	-365.08555	-365.075862	-365.074918	-365.119136	35.656
C          0.01810        1.56190        0.02310
C          0.01590        0.02570        0.03600
C          0.82050       -0.50640        1.22970
C         -1.43780       -0.54450        0.02650
C         -1.48270       -2.07790        0.04800
O         -2.18130       -0.12130        1.16430
C         -2.12230       -0.07530       -1.20700
N         -2.65500        0.30770       -2.15880
H          1.04010        1.93620       -0.08180
H         -0.57170        1.96590       -0.80500
H         -0.37400        1.96900        0.96280
H          0.48560       -0.32140       -0.89340
H          0.29550       -0.30300        2.16780
H          0.99960       -1.58240        1.16470
H          1.79600       -0.01300        1.27200
H         -1.10730       -2.43740        1.00730
H         -2.51260       -2.42060       -0.06910
H         -0.87600       -2.49620       -0.75870
H         -2.29080        0.83520        1.12340
