18
gdb 19867	3.95257	2.09466	1.79087	1.7084	69.68	-0.249	0.0855	0.3345	798.4064	0.156549	-347.776999	-347.770785	-347.769841	-347.807133	25.532
C         -0.00310        1.53240        0.04150
C          1.49390        1.92170        0.01700
C          2.13370        0.86870       -0.90420
C          3.23940       -0.05600       -0.35020
O          2.75840       -0.61090        0.88110
C          2.33690       -1.21780       -0.34760
C          1.16630       -0.37660       -0.90130
C         -0.01010       -0.01440        0.02150
H         -0.53740        1.94950        0.90090
H         -0.49730        1.91420       -0.86110
H          1.65430        2.94810       -0.32440
H          1.91160        1.83220        1.02450
H          2.36190        1.23830       -1.90640
H          4.31510        0.00830       -0.47060
H          2.54030       -2.27630       -0.46550
H          0.86230       -0.69200       -1.90200
H          0.18210       -0.39400        1.02970
H         -0.96580       -0.42460       -0.31650
