14
gdb 1055	7.08663	1.97225	1.59693	2.1981	60.33	-0.1958	0.0403	0.236	749.0718	0.115349	-324.605411	-324.598887	-324.597943	-324.636004	24.059
O          0.53040        0.08910        0.99470
C         -0.13510        0.29840       -0.25200
C         -1.51000       -0.26790       -0.14390
C         -2.71440        0.11520       -0.69180
C         -3.68760       -0.84730       -0.30080
C         -3.04840       -1.78260        0.47990
N         -1.72580       -1.42920        0.55400
H          1.46380        0.28430        0.86890
H         -0.20300        1.36630       -0.50580
H          0.43020       -0.19210       -1.06270
H         -2.87540        0.98530       -1.31050
H         -4.73550       -0.84790       -0.55870
H         -3.42140       -2.65340        0.99470
H         -1.02150       -1.85670        1.13060
