16
gdb 18690	3.17321	2.37484	1.50331	3.35	64.93	-0.2322	0.017	0.2492	826.3023	0.133505	-379.928775	-379.922064	-379.92112	-379.959818	25.795
O          0.00600       -0.04380       -0.10640
C         -0.01220        1.16460        0.02480
N         -1.16330        1.88500        0.19570
C         -1.20990        3.33450        0.03580
C         -0.05680        3.96240        0.81020
N          1.24170        3.41920        0.37300
C          1.87430        2.45540        1.26800
C          1.24550        1.99580       -0.00200
H         -2.01330        1.34860        0.09760
H         -1.15500        3.62360       -1.02390
H         -2.16320        3.70100        0.42710
H         -0.04680        5.04520        0.64630
H         -0.21830        3.78960        1.88240
H          2.95670        2.51210        1.34230
H          1.36360        2.21040        2.19780
H          1.89270        1.74060       -0.83680
