16
gdb 14616	15.65264	0.61251	0.59602	2.1806	68.52	-0.2602	-0.0314	0.2287	1745.3978	0.126145	-383.699986	-383.690519	-383.689575	-383.735769	31.313
O         -0.24830        0.21910        0.56140
C          0.03620        1.11650       -0.18520
C          1.35510        1.86880       -0.13230
O          1.34380        2.84500       -1.14120
C          2.52550        3.61610       -1.19620
C          2.36480        4.62770       -2.33540
C          3.53710        5.47960       -2.47930
C          4.51770        6.16750       -2.57420
H         -0.64830        1.47530       -0.98520
H          1.47110        2.31110        0.87170
H          2.18000        1.14770       -0.26220
H          2.69360        4.14130       -0.24320
H          3.40170        2.97490       -1.37880
H          2.17390        4.08020       -3.26600
H          1.47270        5.23500       -2.14180
H          5.37760        6.78300       -2.67010
