17
gdb 14031	5.50015	1.15449	1.08131	1.46	64.63	-0.2479	0.0543	0.3022	1099.5675	0.142241	-400.936179	-400.928274	-400.92733	-400.969025	28.659
O          0.06850        1.28900       -0.58870
C          0.05460        0.14860        0.25030
C         -1.32410       -0.46530        0.31940
N         -1.74920       -1.12070       -0.94440
C         -1.55450       -1.92160        0.25550
C         -0.61170       -3.11580        0.37500
O         -1.61450       -3.84620        1.11970
C         -2.57670       -2.77890        0.99810
H         -0.26900        0.99240       -1.44250
H          0.77460       -0.61060       -0.09270
H          0.37350        0.48690        1.24170
H         -2.07080        0.13090        0.84240
H         -2.74110       -0.96950       -1.11410
H         -0.36420       -3.59880       -0.57810
H          0.30390       -2.96640        0.95990
H         -2.91080       -2.40660        1.97500
H         -3.45370       -3.07720        0.40620
