17
gdb 10553	2.97947	1.37759	1.06302	3.3674	68.95	-0.2745	0.0335	0.308	1118.4135	0.141571	-363.86086	-363.852212	-363.851268	-363.8944	30.909
O         -0.14730        1.46760        0.05590
C         -0.01940        0.06390        0.20990
C         -1.34260       -0.55770       -0.22820
C         -1.37760       -2.07200       -0.07300
C         -1.73990       -2.67400        1.27980
C         -2.71600       -2.76290        0.14650
C         -0.40530       -2.79310       -0.85870
N          0.38120       -3.35820       -1.49240
H          0.70440        1.87100        0.24650
H          0.80000       -0.33800       -0.40470
H          0.19070       -0.20950        1.25670
H         -2.15010       -0.12410        0.37150
H         -1.53500       -0.28200       -1.27060
H         -1.22460       -3.57610        1.58640
H         -1.93600       -1.96810        2.07930
H         -3.58870       -2.11990        0.15910
H         -2.86710       -3.72600       -0.32580
