14
gdb 151	12.65097	3.37781	3.01126	1.0617	50.07	-0.2299	0.095	0.3249	474.34	0.126034	-212.439286	-212.433577	-212.432633	-212.467838	20.247
C          0.18180        1.47360        0.07380
C         -0.19180        0.00400       -0.09700
N          0.49960       -0.57850       -1.24350
C          1.81660       -1.14780       -0.97780
C          0.64490       -2.02830       -1.24330
H          1.25250        1.58490        0.27410
H         -0.05130        2.03610       -0.83470
H         -0.36680        1.91800        0.90990
H          0.02530       -0.55040        0.83550
H         -1.26930       -0.09070       -0.27840
H          2.57110       -0.98250       -1.74160
H          2.18880       -1.11610        0.04570
H          0.24080       -2.58310       -0.39740
H          0.52570       -2.51770       -2.20590
