20
gdb 10332	2.42639	1.56362	1.03356	3.0779	71.72	-0.2437	-0.0149	0.2288	1177.6921	0.173683	-386.155156	-386.145058	-386.144114	-386.190493	35.531
C          0.00930        1.60790        0.01250
C          0.08690        0.07820        0.04880
C          0.68710       -0.54070       -1.23330
C          2.16050       -0.17750       -1.31590
O          2.63670        0.61640       -2.08490
C          0.56350       -2.07780       -1.28440
C         -0.86490       -2.57320       -1.50420
O          1.44580       -2.60650       -2.27540
H          0.99350        2.05970       -0.14330
H         -0.63910        1.94820       -0.80170
H         -0.39700        1.99830        0.95030
H          0.68620       -0.24520        0.91110
H         -0.91580       -0.33290        0.20800
H          0.19620       -0.10550       -2.11440
H          2.79280       -0.69420       -0.55600
H          0.94640       -2.49030       -0.34200
H         -1.53330       -2.28000       -0.68950
H         -1.27490       -2.16810       -2.43750
H         -0.86820       -3.66410       -1.57470
H          1.16880       -2.26450       -3.13340
