16
gdb 19885	3.45857	2.23594	2.08205	1.6088	62.45	-0.2347	0.0768	0.3115	735.9369	0.131846	-383.688955	-383.682644	-383.6817	-383.719043	25.769
O          0.17900        1.39290       -0.01570
C         -0.01310        0.01320       -0.03420
C         -0.46130       -0.69510        1.20700
O         -1.03500        0.16650        2.17220
C         -2.39090        0.43580        1.84880
C         -2.71050        1.44540        0.77670
C         -2.66060       -0.03840        0.44760
C         -1.37470       -0.69000       -0.00800
H          0.15420        1.65560        0.91440
H          0.72980       -0.49480       -0.64590
H          0.04930       -1.55250        1.63470
H         -3.06120        0.28970        2.68960
H         -3.69900        1.89070        0.83280
H         -1.93870        2.08960        0.38370
H         -3.57840       -0.55230        0.18810
H         -1.46570       -1.56690       -0.63820
