17
gdb 19165	3.81691	1.53772	1.26578	3.1854	63.86	-0.2446	0.0511	0.2957	975.0317	0.141966	-400.936637	-400.9286	-400.927656	-400.969304	29.505
O          0.03100        1.61150        0.27740
C          0.09500        0.21480        0.52090
C         -1.17210       -0.52780        0.10580
C         -2.49340        0.13850        0.22530
N         -1.86990       -0.06480       -1.09660
C         -1.06970       -2.01290        0.29220
C         -1.54630       -2.96160       -0.71880
O         -0.14890       -2.69470       -0.56860
H         -0.43540        2.02620        1.00880
H          0.92480       -0.16520       -0.08430
H          0.33070       -0.00280        1.57300
H         -3.38490       -0.45440        0.41020
H         -2.53110        1.14960        0.62230
H         -1.43870        0.81300       -1.38390
H         -1.02270       -2.34240        1.33250
H         -1.86480       -3.95650       -0.41030
H         -1.99810       -2.56470       -1.62370
