20
gdb 14273	2.78734	2.52919	1.7737	1.3262	73.63	-0.2365	0.0793	0.3158	833.5061	0.180713	-348.997056	-348.990472	-348.989528	-349.027253	27.653
C         -0.05140        1.51280        0.05750
C          1.50580        1.55370        0.02150
C          1.48790        0.08680        0.54600
C          0.03030       -0.04310        0.02440
O         -0.13440       -0.62600       -1.25510
C          0.90270       -0.46360       -2.21020
C          1.30400        0.98570       -2.50730
C          2.09380        1.69560       -1.39020
H         -0.44310        1.86090        1.01780
H         -0.60940        1.99750       -0.74670
H          1.98210        2.27980        0.68660
H          2.24020       -0.61300        0.17360
H          1.49900        0.05220        1.63880
H         -0.67640       -0.57710        0.66470
H          1.79350       -1.04390       -1.92180
H          0.50500       -0.92410       -3.12020
H          1.91330        0.98270       -3.41960
H          0.39530        1.54940       -2.74830
H          2.16800        2.76000       -1.64490
H          3.12360        1.31350       -1.37450
