14
gdb 17083	5.63145	1.5265	1.44972	1.6854	72.34	-0.2274	-0.0366	0.1908	870.3687	0.10733	-345.323522	-345.317176	-345.316232	-345.353864	25.217
C          0.07950       -1.14620       -0.03760
C         -0.01210        0.05610       -0.01010
C         -0.05530        1.45730        0.01930
C         -1.06770        2.34210        0.02370
C         -0.31010        3.67770        0.04270
C          0.76710        3.44580       -1.06200
C          1.16620        2.42370        0.04120
O          0.74040        3.40660        1.03140
H          0.14250       -2.20590       -0.05880
H         -2.13490        2.18200        0.00730
H         -0.84900        4.61160        0.19080
H          0.45130        3.07490       -2.03890
H          1.47390        4.27490       -1.13940
H          2.16510        2.01680        0.18620
