18
gdb 14867	2.72276	1.73979	1.16928	1.5423	68.43	-0.2458	-0.0214	0.2244	1028.2152	0.152562	-384.929581	-384.920974	-384.920029	-384.96329	30.543
O         -0.00180        1.28030       -0.23340
C          0.06010       -0.13920       -0.13930
C         -1.35490       -0.61000        0.16900
C         -2.35320       -0.35630       -0.99910
C         -2.27730       -1.85710       -1.39160
C         -1.63390       -2.13510        0.00810
C         -0.55510       -3.17600        0.06760
O          0.57800       -3.01300        0.44880
H          0.89080        1.60710       -0.37680
H          0.41590       -0.58130       -1.08400
H          0.74850       -0.46560        0.64880
H         -1.65250       -0.18890        1.13260
H         -3.34720       -0.07600       -0.64200
H         -2.03200        0.37160       -1.74560
H         -3.21260       -2.37230       -1.61850
H         -1.57400       -2.04050       -2.20890
H         -2.41990       -2.45910        0.70320
H         -0.89050       -4.17700       -0.29740
