17
gdb 7318	4.3263	1.21156	0.95892	2.944	71.7	-0.2335	0.0113	0.2448	1198.8968	0.141652	-397.224191	-397.215026	-397.214082	-397.25795	32.341
C          0.06100        1.44220        0.02200
N         -0.03000       -0.00330        0.04950
C          0.53110       -0.63800       -0.89190
N          0.50350       -2.02880       -0.97010
C         -0.20790       -2.79070        0.04840
C          1.15780       -2.63430       -2.04870
N          1.11910       -4.01240       -2.04340
O          1.68410       -2.00150       -2.94430
H          0.62920        1.83570       -0.83530
H         -0.94590        1.87550       -0.00420
H          0.53510        1.80010        0.94370
H          1.08120       -0.19320       -1.72370
H         -0.90340       -3.49670       -0.41390
H          0.48280       -3.33730        0.70330
H         -0.76100       -2.07640        0.65720
H          1.02540       -4.51710       -1.17790
H          1.73250       -4.42530       -2.72790
