18
gdb 7979	2.81961	1.95648	1.46593	1.7902	67.58	-0.244	-0.0248	0.2192	928.1301	0.152609	-384.974642	-384.966397	-384.965453	-385.007501	30.436
C          0.65160        1.32840        0.17590
C         -0.09220        0.01300       -0.05060
C          0.36130       -0.73810       -1.30840
C          1.37530       -1.74240       -0.76960
O          2.22260       -2.33130       -1.38710
C          1.11900       -1.86500        0.73590
C          2.39480       -1.70400        1.56220
O          0.12540       -0.89910        1.04650
H          1.73700        1.18850        0.12580
H          0.37050        2.06470       -0.58480
H          0.40350        1.73400        1.16020
H         -1.16910        0.20910       -0.06440
H         -0.46320       -1.30590       -1.75600
H          0.79850       -0.11040       -2.08700
H          0.69740       -2.86410        0.92450
H          2.84900       -0.72210        1.40140
H          2.17080       -1.81010        2.62640
H          3.11630       -2.47200        1.26950
