17
gdb 19928	3.76155	2.32206	1.94852	1.6186	66.1	-0.2279	0.0766	0.3044	745.4048	0.145352	-363.818855	-363.812885	-363.811941	-363.84869	24.361
C         -0.10190        1.42750        0.17370
C          1.21940        0.75660        0.03230
C          1.99070        0.38660        1.29200
C          1.88090        1.35240        2.48960
O          0.74110        0.62900        3.00900
C          0.98810       -0.47580        2.09870
C         -0.16280       -0.83250        1.15470
N         -0.04340       -0.01890       -0.07200
H         -0.40560        1.76470        1.16060
H         -0.49760        2.01200       -0.65300
H          1.78060        0.87370       -0.89010
H          2.97720       -0.02100        1.06980
H          2.73150        1.30570        3.18170
H          1.64610        2.39900        2.26960
H          1.38360       -1.34290        2.64140
H         -0.08320       -1.88620        0.86420
H         -1.13690       -0.68490        1.63160
