18
gdb 3011	4.06843	2.01535	1.60532	2.567	64.44	-0.2445	0.0836	0.3281	831.1898	0.159682	-326.943546	-326.93575	-326.934806	-326.975273	28.824
C          0.03080        1.44850       -0.23560
C          0.12130       -0.04780        0.06430
C          0.79470       -0.32320        1.41670
O          0.04920        0.22010        2.48760
N         -1.22990       -0.61860        0.14720
C         -1.91730       -0.90170       -1.10520
C         -1.39000       -2.01100       -0.26360
H          1.03230        1.87380       -0.35200
H         -0.52650        1.63290       -1.15870
H         -0.46930        1.96660        0.58580
H          0.71150       -0.54530       -0.72750
H          0.92940       -1.41150        1.53520
H          1.78820        0.13720        1.44410
H         -0.87040       -0.00870        2.29480
H         -2.98040       -0.67970       -1.12810
H         -1.38790       -0.69070       -2.03300
H         -0.51000       -2.53760       -0.62940
H         -2.06130       -2.61310        0.34170
