14
gdb 10599	3.37475	1.74569	1.35695	0.8454	61.81	-0.2606	-0.0483	0.2123	886.0748	0.104686	-419.684298	-419.676626	-419.675682	-419.716057	28.041
O         -0.06190        1.21650        0.05800
C         -0.09600       -0.13090        0.17030
C         -0.59820       -0.84560        1.33430
C         -1.56960       -0.89280        0.13900
C         -2.67780        0.05190        0.10800
O         -2.68180        1.12030        0.70120
C         -1.62720       -2.12980       -0.65070
O         -0.78130       -2.99690       -0.61860
H         -0.82200        1.58090        0.55060
H          0.60640       -0.62770       -0.49020
H         -0.16570       -1.81600        1.55470
H         -0.94900       -0.25930        2.17770
H         -3.53680       -0.23510       -0.53240
H         -2.51430       -2.21730       -1.31680
