20
gdb 7175	5.97607	0.75171	0.70098	3.1663	72.51	-0.2488	-0.0209	0.228	1574.0816	0.173922	-386.148286	-386.138128	-386.137184	-386.18446	34.782
C          0.05650        1.56650        0.10640
C         -0.04510        0.03940       -0.03510
C          0.62200       -0.48480       -1.31740
C          0.00090        0.02640       -2.61300
O          0.62910       -0.66430       -3.68320
C          0.56040       -0.66250        1.20050
C         -0.23460       -0.40370        2.45900
O          0.20870        0.03700        3.48800
H          1.10470        1.88730        0.09680
H         -0.46050        2.08480       -0.70590
H         -0.38240        1.91110        1.04820
H         -1.11160       -0.23040       -0.07680
H          1.68940       -0.22960       -1.31360
H          0.56450       -1.57980       -1.33830
H         -1.08640       -0.16050       -2.60160
H          0.14380        1.11300       -2.70940
H          0.28490       -0.31510       -4.51030
H          0.55090       -1.74950        1.03380
H          1.59770       -0.35500        1.36810
H         -1.31790       -0.66210        2.36950
