15
gdb 21574	5.24679	1.30428	1.07902	2.0221	64.51	-0.2042	0.0361	0.2403	1053.7847	0.120439	-395.988293	-395.980264	-395.97932	-396.02103	28.893
N          0.18210        1.39700        0.19010
C         -0.03330        0.02150        0.06250
C         -1.15900       -0.76410        0.21410
C         -0.69650       -2.08920        0.02600
C         -1.49450       -3.35090        0.10490
O         -2.73150       -3.14940       -0.57180
N          0.60510       -2.13330       -0.22980
N          0.99270       -0.83100       -0.18950
H          0.66680        1.80140       -0.60320
H         -0.68740        1.89420        0.32940
H         -2.16880       -0.43560        0.39520
H         -0.90510       -4.16500       -0.33990
H         -1.67380       -3.61140        1.16120
H         -3.27900       -3.92440       -0.41500
H          1.96560       -0.60230       -0.29810
