17
gdb 17183	4.00705	1.82114	1.56492	2.9541	68.42	-0.2261	0.0659	0.292	856.9468	0.142599	-363.751952	-363.744946	-363.744002	-363.783228	26.994
O         -0.06120        1.42890        0.09660
C         -0.00830        0.01720       -0.06300
C         -1.42140       -0.49430       -0.05280
C         -2.57990       -0.20590       -1.00200
N         -3.25850       -1.16020       -0.02350
C         -1.93290       -1.96300        0.09520
C         -1.99290       -1.91530        1.62490
C         -2.43660       -0.53330        1.13690
H          0.83470        1.77260        0.03400
H          0.47540       -0.26190       -1.01360
H          0.56660       -0.46010        0.74810
H         -3.00800        0.80090       -0.99950
H         -2.52170       -0.59890       -2.02340
H         -1.73950       -2.80290       -0.57590
H         -2.76710       -2.52970        2.09180
H         -1.04630       -1.97620        2.16720
H         -2.83170        0.31730        1.69390
