17
gdb 19593	4.16663	1.99465	1.85893	1.7371	66.72	-0.2221	0.0779	0.2999	774.3517	0.145017	-363.796139	-363.790001	-363.789057	-363.825889	25.961
O         -0.04750        1.42820       -0.04430
C          0.04880        0.01700       -0.03640
C          0.14410       -0.62460        1.38840
C         -1.37920       -0.26000        1.51720
C         -1.36470       -0.62030       -0.01380
C         -1.05600       -2.12670        0.07720
N          0.32040       -2.52670       -0.31580
C          0.02850       -2.12990        1.08710
H          0.84150        1.77870        0.06670
H          0.74930       -0.33910       -0.79180
H          0.89010       -0.29670        2.11370
H         -1.99050       -0.88440        2.17480
H         -1.55260        0.79840        1.70390
H         -2.13910       -0.28600       -0.70340
H         -1.85620       -2.85730        0.05070
H          0.35440       -3.54370       -0.35580
H          0.10980       -2.86410        1.88070
