15
gdb 3277	5.16742	2.51051	2.01118	2.8976	60.63	-0.2371	-0.019	0.2181	666.417	0.125672	-308.51084	-308.504739	-308.503795	-308.5411	23.079
O          0.10380        0.07720       -0.61450
C          0.04860        1.18810       -0.17230
C         -1.10210        2.06520        0.36550
C         -0.07500        3.20610        0.60890
C          0.60070        3.18570        2.00490
C          1.72540        2.25420        1.46250
C          1.08400        2.29740        0.03710
H         -1.82810        2.28540       -0.42490
H         -1.64740        1.67760        1.23160
H         -0.32670        4.17610        0.18250
H          0.97330        4.16270        2.32090
H         -0.01320        2.78070        2.81450
H          2.71780        2.70800        1.48770
H          1.79710        1.25980        1.90970
H          1.73490        2.54430       -0.80250
