17
gdb 23906	4.55482	0.85904	0.84528	2.2105	57.81	-0.3339	0.0832	0.417	1382.3428	0.137765	-495.391977	-495.383147	-495.382203	-495.426375	31.009
C         -0.05220        1.57680       -0.04790
C         -0.00690        0.04730       -0.01150
C          0.72870       -0.49430        1.21850
C          0.77360       -2.02510        1.25370
C          1.49820       -2.56710        2.46650
F          0.91270       -2.17920        3.61310
F          1.51900       -3.91040        2.46500
F          2.77530       -2.14920        2.51370
H          0.95730        2.00180       -0.06600
H         -0.58220        1.93850       -0.93410
H         -0.56350        1.97820        0.83390
H         -1.02950       -0.35220       -0.02810
H          0.48040       -0.32870       -0.92070
H          1.75370       -0.10580        1.23760
H          0.24230       -0.12960        2.13090
H         -0.23680       -2.44720        1.26650
H          1.28220       -2.42330        0.36950
