14
gdb 11182	3.71633	1.59265	1.43818	1.685	62.53	-0.2487	-0.0298	0.2189	889.7967	0.10589	-382.520362	-382.513066	-382.512122	-382.552295	26.911
O         -0.01730        0.04950       -0.31710
C         -0.01700        1.22450       -0.07210
C         -1.24410        2.10200        0.19280
O         -0.74340        3.35930        0.61020
C          0.55000        3.54990        0.00910
C          1.19720        2.15180        0.03480
C          0.44120        4.08980       -1.34980
C          0.34340        4.51550       -2.46940
H         -1.83820        2.17610       -0.73120
H         -1.87670        1.68590        0.98160
H          1.07480        4.26560        0.64740
H          1.68270        1.97540        1.00090
H          1.91860        1.96310       -0.76000
H          0.25830        4.90300       -3.45490
