11
gdb 14659	25.38693	0.54691	0.53717	6.6773	88.06	-0.2676	-0.0812	0.1864	1871.707	0.071054	-360.21621	-360.207978	-360.207034	-360.249553	27.171
O         -0.00030        1.45710        0.01000
C          0.00490        0.04030        0.00240
C         -1.36570       -0.44980        0.01280
C         -2.49480       -0.88850        0.02110
C         -3.75540       -1.37380        0.03050
C         -4.88960       -1.81150        0.03890
C         -6.15700       -2.30220        0.04840
N         -7.24160       -2.72360        0.05660
H          0.91670        1.75070        0.00300
H          0.51090       -0.36440       -0.88990
H          0.52760       -0.37380        0.88060
