12
gdb 719	6.96309	5.38545	5.38524	0.0001	51.49	-0.2242	0.085	0.3092	362.9129	0.097379	-231.975652	-231.971606	-231.970662	-232.002516	16.7
C         -0.03300        1.52170        0.00870
C         -0.03540        0.76830       -1.31400
C         -0.01250       -0.00040       -0.00030
C          1.54600        0.02060       -0.01520
C          1.52560        1.54270       -0.00600
C          1.52320        0.78950       -1.32880
H         -0.77060        2.19890        0.41770
H         -0.77520        0.76300       -2.10310
H         -0.73150       -0.70200        0.40060
H          2.29120       -0.66140        0.37160
H          2.25230        2.23960        0.38930
H          2.24780        0.80410       -2.13180
