14
gdb 4688	6.11546	1.33844	1.10103	2.6039	78.36	-0.1786	0.0095	0.1881	1018.6113	0.108032	-341.589678	-341.582078	-341.581134	-341.621171	28.828
N          0.15770        1.38270        0.13580
C         -0.01220       -0.00470        0.02850
C         -1.14680       -0.79520       -0.01330
C         -0.71870       -2.14600       -0.02960
C          0.66470       -2.15960       -0.00900
N          1.07500       -0.82920        0.02920
C          1.58800       -3.21840       -0.02630
C          2.39510       -4.11560       -0.03570
H          0.68810        1.77780       -0.63440
H         -0.73610        1.85430        0.18320
H         -2.16320       -0.43390       -0.04550
H         -1.34300       -3.02450       -0.07450
H          2.02700       -0.53050        0.15530
H          3.09460       -4.91350       -0.04720
