19
gdb 19551	4.01839	1.7458	1.61886	1.7062	74.61	-0.2301	0.0879	0.318	901.2177	0.166786	-327.867424	-327.860205	-327.85926	-327.898845	28.202
C          0.04010        1.52380       -0.29940
C         -0.00350        0.04620        0.11270
C         -1.38890       -0.50240        0.20300
C         -1.97650       -1.85870        0.08640
C         -2.87910       -1.65080        1.29910
C         -2.69800       -0.13350        1.02960
C         -3.35740        0.03000       -0.34710
N         -2.27490       -0.80690       -0.96100
H          1.07150        1.88380       -0.35870
H         -0.42610        1.66420       -1.27930
H         -0.49220        2.15300        0.42190
H          0.54960       -0.55890       -0.61610
H          0.50260       -0.08810        1.07790
H         -1.52630       -2.77190       -0.28140
H         -3.90010       -2.04850        1.28250
H         -2.37330       -1.96900        2.21460
H         -2.80670        0.59660        1.82990
H         -4.37810       -0.34980       -0.47970
H         -3.28380        1.04100       -0.75540
