18
gdb 12802	3.43605	2.03206	1.54947	1.2516	72.31	-0.2293	0.0291	0.2584	865.5364	0.154609	-347.803776	-347.796381	-347.795436	-347.835055	29.123
O          0.10970        1.42590       -0.25490
C          0.02490        0.05550        0.04560
C         -0.23190       -0.94070       -1.05130
C         -1.30330       -0.65640       -0.00420
C         -1.65830       -1.71260        1.02730
C         -0.47040       -2.19820        1.81330
C          0.70060       -1.56520        1.86530
C          1.00450       -0.27740        1.15100
H         -0.36480        1.59100       -1.07530
H         -0.39600       -0.56220       -2.05640
H          0.28010       -1.89730       -1.01340
H         -2.14140       -0.05700       -0.35160
H         -2.40220       -1.30190        1.72610
H         -2.15630       -2.56430        0.54180
H         -0.60730       -3.11610        2.37970
H          1.50250       -1.97440        2.47480
H          2.02580       -0.29400        0.74770
H          0.98610        0.55580        1.86820
