19
gdb 1139	4.77422	1.7673	1.65623	1.5303	67.01	-0.2539	0.0746	0.3286	850.7327	0.170464	-310.915653	-310.907707	-310.906762	-310.947014	30.604
C         -0.61780        1.59940       -0.05300
C         -0.03070        0.19300        0.01700
C         -1.11640       -0.85950       -0.22800
C          1.24570       -0.06450       -0.84950
C          1.87720       -0.80620        0.35740
O          3.24930       -0.66220        0.62940
C          0.83020       -0.13190        1.28170
H          0.14950        2.36140        0.12070
H         -1.06450        1.79320       -1.03550
H         -1.40280        1.73830        0.70000
H         -1.57350       -0.72680       -1.21540
H         -0.71740       -1.87800       -0.18240
H         -1.91220       -0.78170        0.52170
H          1.12890       -0.61270       -1.78850
H          1.78360        0.86870       -1.05450
H          1.71270       -1.88510        0.29120
H          3.44020        0.27950        0.69650
H          1.24070        0.78060        1.73000
H          0.37600       -0.73490        2.07300
