17
gdb 19707	5.48884	1.81267	1.64312	0.3636	67.89	-0.215	0.0877	0.3027	822.3903	0.143658	-363.783056	-363.776768	-363.775824	-363.813107	25.448
C          0.03900        1.51110       -0.17440
N          0.03070        0.06010        0.01250
C         -1.05760       -0.51470        0.87520
C         -0.14630       -1.75640        1.13420
C         -0.40440       -2.21940        2.55580
O         -0.55570       -0.95660        3.23810
C         -0.37790       -0.02410        2.19880
C          0.75220       -0.48140        1.21470
H          1.01000        1.80340       -0.58780
H         -0.72570        1.77140       -0.91370
H         -0.14140        2.11620        0.72710
H         -2.11020       -0.49970        0.58670
H          0.01710       -2.47500        0.33390
H         -1.32050       -2.81290        2.66300
H          0.43100       -2.78060        2.99160
H         -0.46790        0.98960        2.57910
H          1.83660       -0.42700        1.32700
