19
gdb 6185	3.4936	1.64124	1.49658	3.3426	72.62	-0.2506	0.0342	0.2848	952.7664	0.165521	-365.105112	-365.096993	-365.096048	-365.137251	31.253
C          0.10800        1.41660        0.19680
C         -0.06580       -0.08330       -0.05960
C         -1.53830       -0.47550       -0.10400
C          0.73910       -0.56970       -1.28670
C          2.10690       -0.92100       -0.69010
C          1.77250       -1.28440        0.74100
N          2.51500       -1.93480        1.52940
O          0.53560       -0.80310        1.05640
H          1.16540        1.69750        0.20960
H         -0.39140        2.00020       -0.58310
H         -0.32640        1.68760        1.16300
H         -2.03290        0.00230       -0.95570
H         -1.64290       -1.55920       -0.20510
H         -2.05200       -0.16310        0.80970
H          0.26620       -1.46270       -1.70730
H          0.78400        0.18730       -2.07270
H          2.62370       -1.74020       -1.19050
H          2.78480       -0.06050       -0.69040
H          2.06450       -2.03300        2.44130
