18
gdb 8043	3.39199	1.81679	1.48602	0.6866	78.89	-0.251	0.046	0.297	918.2014	0.15333	-310.593413	-310.585842	-310.584898	-310.624793	29.983
C         -0.02350        1.47270        0.03500
C          0.03740       -0.02990        0.01220
C          0.60730       -0.95750       -1.10510
C          0.08080       -1.91950       -0.00620
C          0.73990       -0.97680        1.03740
C         -1.19710       -1.01490        0.06010
C         -2.04870       -1.03540        1.23090
C         -2.77730       -1.03870        2.18890
H          0.98270        1.90560        0.01950
H         -0.56990        1.85980       -0.83210
H         -0.53070        1.82590        0.93900
H          0.07850       -0.95910       -2.06310
H          1.69090       -0.93120       -1.24590
H          0.09050       -3.00930       -0.01650
H          1.83310       -0.95010        1.04240
H          0.33180       -0.99620        2.04950
H         -1.79830       -1.01890       -0.85590
H         -3.41800       -1.04790        3.03540
