20
gdb 19303	7.5073	0.79583	0.76282	1.6775	75.86	-0.2619	0.0977	0.3595	1511.7575	0.176693	-348.969625	-348.961119	-348.960175	-349.003646	30.987
C          0.01150        1.47110        0.20840
C         -0.02110        0.02340       -0.30650
C         -1.39980       -0.58350       -0.22920
C         -1.63050       -1.99370        0.10540
O         -1.85870       -0.96710        1.07240
C          1.38930        2.09340        0.13960
C          1.87800        2.73230       -1.13750
C          1.55630        3.58870        0.06420
H         -0.69040        2.08160       -0.37640
H         -0.35610        1.48460        1.24210
H          0.32570       -0.00640       -1.34800
H          0.67130       -0.59330        0.27900
H         -2.16400       -0.07940       -0.82580
H         -2.52280       -2.50230       -0.25800
H         -0.77840       -2.64270        0.30550
H          2.14460        1.56520        0.71760
H          2.91760        2.60740       -1.41960
H          1.19290        2.76840       -1.97900
H          0.65770        4.19600        0.02570
H          2.37670        4.04700        0.60550
