8
gdb 113	46.2984	2.58674	2.44986	4.2338	35.69	-0.2934	-0.0298	0.2636	460.7073	0.055229	-283.156647	-283.151564	-283.15062	-283.184645	15.704
N         -0.09460        1.29310        0.01020
C         -0.01870        0.04050        0.00240
O         -1.17600       -0.69140        0.00940
C         -1.07740       -2.05190        0.00140
O         -2.03640       -2.75380        0.00690
H          0.83740        1.70420        0.00350
H          0.88760       -0.57590       -0.00980
H         -0.03110       -2.40800       -0.01040
