20
gdb 7489	3.8488	1.13458	1.05202	2.5257	70.67	-0.2438	0.0703	0.3141	1191.0163	0.175772	-386.112871	-386.103644	-386.102699	-386.147768	32.824
C          0.02330        1.62970        0.09790
C         -0.00410        0.10320        0.01130
C         -1.41940       -0.47730       -0.02710
C         -2.26070       -0.03560       -1.22060
O         -3.47410       -0.77170       -1.17850
C          0.99480       -0.47550       -1.02920
O          1.86840       -0.96650        0.00490
C          0.93960       -0.58090        1.03650
H          1.05180        1.99240        0.19280
H         -0.40890        2.09550       -0.79400
H         -0.54090        1.98510        0.96780
H         -1.36310       -1.57210       -0.05050
H         -1.95350       -0.21250        0.89440
H         -2.45520        1.04650       -1.17530
H         -1.71100       -0.22880       -2.15730
H         -4.02980       -0.47850       -1.90640
H          0.59920       -1.29020       -1.65180
H          1.49480        0.25500       -1.67790
H          1.40140        0.07930        1.78160
H          0.51030       -1.45250        1.54910
