18
gdb 13595	4.4261	1.24039	1.11423	3.1413	69.83	-0.2407	-0.0202	0.2205	1125.3475	0.152152	-384.953105	-384.944535	-384.943591	-384.986591	31.45
C         -0.04020        1.53490       -0.00090
C          0.06490        0.01390        0.06440
C          0.82850       -0.49920        1.27290
O          1.30950        0.26880        2.09780
C          0.93710       -1.96360        1.42940
C          2.20570       -2.52520        2.08960
C          0.95660       -2.49650        2.88730
O          0.77270       -1.64400        3.95370
H          0.95120        1.99380       -0.02950
H         -0.59200        1.84470       -0.89260
H         -0.55440        1.92870        0.87940
H         -0.92890       -0.45530        0.07920
H          0.55430       -0.39190       -0.83230
H          0.45030       -2.57230        0.67570
H          2.57600       -3.46960        1.70630
H          2.96320       -1.78760        2.33360
H          0.42410       -3.42970        3.04060
H          1.10560       -0.77160        3.67750
