14
gdb 3779	7.68162	1.97832	1.59262	3.5604	59.61	-0.198	0.0399	0.2379	751.9625	0.1161	-320.767103	-320.760501	-320.759557	-320.797594	23.989
C         -0.05500        1.42740       -0.02740
N         -0.10320       -0.02490        0.05320
C          0.61350       -0.62090        1.08250
C          1.27690       -0.09590        2.17920
C          1.74180       -1.23160        2.88240
N          1.41300       -2.37010        2.29080
N          0.71940       -1.97170        1.18950
H          0.96410        1.82880       -0.13660
H         -0.65550        1.75510       -0.87890
H         -0.49280        1.85500        0.87950
H          0.04800       -0.46840       -0.84310
H          1.41490        0.94360        2.42350
H          2.31450       -1.25430        3.79870
H          0.29970       -2.66710        0.59700
