16
gdb 19726	3.95823	2.36768	2.18996	1.1993	61.73	-0.246	0.0862	0.3322	691.9173	0.13383	-383.71879	-383.713344	-383.7124	-383.748006	23.044
C         -0.01020        1.54060       -0.00780
O          1.37550        1.94440        0.01410
C          2.14590        0.72310        0.02700
C          1.30910       -0.22230       -0.84300
C          0.04250       -0.00680        0.01420
C          0.55910       -0.33180        1.42240
O          1.65190       -1.25370        1.49690
C          1.94670        0.14960        1.43740
H         -0.52980        1.96370        0.86040
H         -0.48600        1.92260       -0.91940
H          3.16270        0.95660       -0.28570
H          1.20410        0.15430       -1.86200
H          1.66190       -1.25130       -0.84530
H         -0.87480       -0.50200       -0.30360
H         -0.09790       -0.29840        2.28640
H          2.43200        0.58490        2.30450
