20
gdb 20081	3.16634	1.44028	1.19407	1.9166	75.69	-0.2525	0.0807	0.3332	1098.5752	0.175872	-348.970284	-348.96139	-348.960446	-349.004059	32.44
C         -0.17400        0.98470       -1.90870
C         -0.01080       -0.17130       -0.94240
C          1.32320       -0.58970       -0.36410
C          2.62690        0.11010       -0.68760
C          0.26420        0.01740        0.54100
C          0.42040        1.36430        1.15980
C         -0.48600        1.83420        2.21700
O          0.83040        1.38380        2.53620
H          0.51880        1.80650       -1.71390
H         -0.00190        0.65230       -2.93840
H         -1.18890        1.39460       -1.85990
H         -0.68700       -0.99430       -1.16170
H          1.44490       -1.66300       -0.23920
H          2.51180        1.18810       -0.82240
H          3.35580       -0.04030        0.11580
H          3.06130       -0.28850       -1.61100
H         -0.23730       -0.67800        1.20920
H          0.90830        2.12880        0.55760
H         -0.66450        2.90100        2.34980
H         -1.29610        1.18650        2.55170
