17
gdb 18898	3.13646	2.59445	1.80334	2.0154	71.04	-0.2046	0.074	0.2786	793.6355	0.141135	-326.614951	-326.607787	-326.606842	-326.645781	27.971
C          0.06450        1.54230       -0.06950
C         -0.00650        0.05200       -0.03000
C          0.84910       -0.99730       -0.75940
C          0.77670       -0.97480        0.74780
N         -0.38960       -1.95950        0.77600
C         -0.35230       -1.97020       -0.73460
C         -1.19440       -0.96660       -0.02780
C         -2.66920       -0.80970        0.11890
H          1.10730        1.87710       -0.03590
H         -0.38180        1.94570       -0.98600
H         -0.45420        1.99490        0.78380
H          1.67790       -0.84750       -1.43710
H          1.53380       -0.89030        1.51840
H         -0.61180       -2.85110       -1.31120
H         -3.14220       -1.79480        0.18330
H         -2.92090       -0.25590        1.03030
H         -3.10120       -0.27670       -0.73550
