24
gdb 10229	1.80057	1.68339	0.9445	0.8824	82.47	-0.2409	0.0836	0.3245	1350.6547	0.220738	-351.414771	-351.403857	-351.402913	-351.451377	38.416
C          0.35480        1.38470       -0.37820
C          0.47850       -0.12890       -0.31200
O          0.47820       -0.51370        1.05030
C          0.58770       -1.91710        1.30140
C          1.86410       -2.18550        2.10770
C          3.14820       -1.76540        1.38990
C         -0.66590       -2.39540        2.04370
C         -1.96410       -2.18740        1.26130
H          1.19180        1.86130        0.14020
H          0.35160        1.72260       -1.41890
H         -0.57290        1.71510        0.09800
H         -0.35880       -0.60340       -0.84850
H          1.40660       -0.45750       -0.80660
H          0.65590       -2.45050        0.33950
H          1.78260       -1.64930        3.06160
H          1.90290       -3.25480        2.35130
H          4.02890       -1.96300        2.00870
H          3.27660       -2.31010        0.44750
H          3.13020       -0.69570        1.16320
H         -0.54050       -3.45780        2.28790
H         -0.72130       -1.85840        2.99900
H         -2.83040       -2.52970        1.83570
H         -2.10990       -1.12810        1.03270
H         -1.95430       -2.74090        0.31530
