14
gdb 19676	4.91386	1.85986	1.73757	4.2904	64.4	-0.2516	0.005	0.2566	761.6028	0.109124	-341.512672	-341.506726	-341.505782	-341.542681	23.267
N          0.02280       -1.20220       -0.08530
C          0.02390       -0.04810       -0.02020
C          0.01190        1.41080        0.07620
C         -0.17530        2.10170        1.41920
C          1.22860        2.18870        2.04960
C          2.16860        1.52890        1.05770
N          1.34910        2.13270       -0.07370
C          0.80830        3.14140        0.97270
H         -0.66850        1.80990       -0.68080
H         -1.07840        2.22200        2.00250
H          1.34690        2.37940        3.10840
H          3.15790        1.99140        1.04620
H          2.26460        0.43960        1.02710
H          0.77690        4.21400        0.85350
