17
gdb 19139	3.33985	1.66617	1.33578	3.9681	69.17	-0.2407	-0.0185	0.2221	956.9032	0.141787	-363.829529	-363.821675	-363.82073	-363.862031	28.927
O         -0.14490        0.20950        0.73740
C          0.12100        1.00300       -0.13740
C          1.29300        1.92460       -0.08890
C          1.79770        2.27740        1.30430
C          2.56530        1.29820        0.48750
C          1.43380        2.94770       -1.17750
N          0.89200        2.61110       -2.50220
C          0.28930        3.71420       -1.73570
H         -0.49450        1.07230       -1.05530
H          2.19960        3.27570        1.43960
H          1.20590        1.89200        2.12650
H          2.49600        0.25090        0.75730
H          3.50500        1.60620        0.04160
H          2.38530        3.47790       -1.14910
H          1.48900        2.96820       -3.24220
H         -0.71930        3.52240       -1.37810
H          0.46420        4.73740       -2.05770
