26
gdb 6799	5.69688	0.62454	0.58756	0.0898	90.06	-0.2959	0.0861	0.382	2037.377	0.244806	-315.494718	-315.483612	-315.482668	-315.531516	39.781
C          0.03150        1.63890       -0.05100
C         -0.00160        0.10860       -0.01360
C          0.72010       -0.48210        1.20230
C          0.69400       -2.01410        1.24680
C          1.41720       -2.59290        2.46860
C          1.51000       -4.12930        2.51490
C          2.42520       -4.57740        3.66280
C          0.13330       -4.79910        2.63240
H          1.06140        2.01200       -0.08370
H         -0.49160        2.03030       -0.92930
H         -0.44480        2.06710        0.83820
H         -1.04450       -0.23570       -0.01760
H          0.45080       -0.29020       -0.93140
H          1.76320       -0.13530        1.20800
H          0.26680       -0.08390        2.12120
H         -0.35000       -2.35180        1.23110
H          1.15500       -2.41060        0.33090
H          2.43600       -2.18220        2.49810
H          0.92440       -2.23810        3.38590
H          1.96750       -4.46290        1.57150
H          2.01820       -4.26520        4.63230
H          2.53240       -5.66710        3.68510
H          3.42610       -4.14290        3.56850
H         -0.37790       -4.48000        3.54930
H         -0.51680       -4.55640        1.78700
H          0.22990       -5.88940        2.67130
