12
gdb 3412	5.00955	3.2583	2.21992	4.3637	55.87	-0.2529	-0.055	0.1979	574.2908	0.091937	-323.381747	-323.37655	-323.375606	-323.410567	19.947
O          0.03860       -0.01510        0.08800
C         -0.03200        1.18170        0.00590
C         -1.24320        2.04570        0.00690
C         -0.87020        3.33140        0.03390
C          0.61370        3.42350        0.00230
C          1.37200        2.82220        1.14500
N          1.12770        2.05540       -0.09110
H         -2.24360        1.63940        0.06110
H         -1.51980        4.19760        0.05720
H          1.09380        4.17430       -0.61870
H          2.40700        3.10610        1.31310
H          0.80980        2.54530        2.03320
