19
gdb 20124	3.57939	1.49249	1.13994	1.8728	71.68	-0.2392	0.0814	0.3206	1068.7153	0.164366	-365.006005	-364.997643	-364.996698	-365.039054	30.768
C         -0.51030        1.91480       -0.33580
C         -0.11200        0.45330       -0.12390
N         -1.30810       -0.36260        0.08730
C         -1.15050       -1.56730        0.89500
C         -1.85910       -0.37530        1.43720
C          0.61910       -0.08340       -1.33860
O          1.94980        0.39740       -1.53180
C          1.76890       -0.98870       -1.23250
H          0.37680        2.51880       -0.54350
H         -1.20280        2.00260       -1.17880
H         -1.00510        2.31690        0.55320
H          0.57800        0.39260        0.73860
H         -1.70590       -2.43900        0.56120
H         -0.16500       -1.78410        1.30430
H         -1.34250        0.19840        2.20560
H         -2.94290       -0.35780        1.50830
H          0.01460       -0.12310       -2.24610
H          2.11960       -1.30120       -0.24940
H          1.99600       -1.67680       -2.04550
