17
gdb 8307	5.26228	1.13575	0.97408	3.7854	66.26	-0.2264	-0.0173	0.2091	1159.0304	0.140481	-400.977073	-400.968709	-400.967765	-401.010389	29.906
O          0.11240        1.42150        0.02250
C          0.03440        0.00250        0.03690
C         -1.43390       -0.39570        0.05490
N         -2.11000       -0.08010       -1.18820
C         -2.44500        1.33820       -1.47950
C         -3.83560        0.86180       -1.91260
O         -4.76810        1.34670       -2.47840
C         -3.51660       -0.52250       -1.32480
H          1.02830        1.67440       -0.12330
H          0.50980       -0.43410       -0.85320
H          0.52830       -0.41210        0.92990
H         -1.48950       -1.48010        0.20550
H         -1.91830        0.08280        0.92920
H         -2.49050        1.98540       -0.59050
H         -1.81740        1.82590       -2.23060
H         -3.67770       -1.39690       -1.96460
H         -4.04430       -0.67790       -0.36820
