22
gdb 20014	4.40404	1.06359	0.94346	0.0877	83.38	-0.2431	0.0894	0.3325	1331.3002	0.20014	-313.04781	-313.038873	-313.037929	-313.081829	33.495
C         -0.07160        1.57920       -0.26150
C         -0.02130        0.13280        0.24480
C         -1.37260       -0.55060        0.18080
C         -1.83870       -1.24030       -1.08170
C         -1.53890       -2.05500        0.15650
C         -0.38300       -3.00540        0.20250
C         -0.08270       -3.77680        1.46550
C         -0.63390       -4.49320        0.25710
H          0.91130        2.05730       -0.20170
H         -0.40480        1.61900       -1.30380
H         -0.77070        2.18000        0.33100
H          0.71080       -0.43080       -0.34460
H          0.34760        0.11990        1.27900
H         -2.14730       -0.01850        0.73010
H         -2.86870       -1.12680       -1.40250
H         -1.12700       -1.30850       -1.89990
H         -2.41040       -2.42510        0.69340
H          0.48240       -2.70260       -0.37950
H          0.95380       -3.94370        1.73770
H         -0.74470       -3.63110        2.31300
H         -1.66550       -4.82870        0.29330
H          0.02510       -5.15070       -0.29940
