17
gdb 18505	5.5973	1.22289	1.14188	3.7254	70.01	-0.2475	0.0316	0.2792	1060.2376	0.143364	-363.858106	-363.850666	-363.849722	-363.890736	27.635
O         -0.11680       -0.07520        0.15250
C         -0.05440        1.13390        0.08050
N          1.08830        1.85580       -0.07780
C          2.40400        1.26100       -0.15240
C          3.22670        1.33500       -1.49080
C          4.38080        1.97390       -0.70930
C          3.91780        3.26360       -0.10220
C          3.54540        1.96930        0.57630
H         -0.94740        1.78850        0.13980
H          1.01200        2.86050       -0.10910
H          2.28690        0.22530        0.16550
H          3.44350        0.34410       -1.89410
H          2.79600        1.95290       -2.28550
H          5.42930        1.73350       -0.82640
H          4.67370        3.84280        0.41790
H          3.17780        3.87560       -0.61580
H          3.85130        1.76200        1.59480
