12
gdb 2827	4.85047	1.71562	1.38699	3.198	53.34	-0.2638	-0.0506	0.2132	816.4883	0.088308	-360.495461	-360.488612	-360.487668	-360.526895	23.368
O         -0.49870        0.77120        0.90220
C          0.16920        0.86790       -0.09460
C          1.38590        1.73150       -0.17940
N          2.34110        1.40130       -1.23360
C          1.63470        2.67450       -1.34670
C          0.67970        2.80230       -2.48900
O          0.31750        3.86380       -2.92600
H         -0.06270        0.30520       -1.02390
H          1.73900        2.09250        0.78410
H          3.29800        1.53600       -0.92080
H          2.13770        3.60310       -1.08590
H          0.34100        1.83500       -2.91740
