15
gdb 15526	3.15686	1.81908	1.17221	5.4604	68.68	-0.2225	-0.0392	0.1833	963.7402	0.118814	-399.817095	-399.809212	-399.808268	-399.849663	27.984
N          0.06880        1.35290       -0.08240
C         -0.01300       -0.00380       -0.04100
C         -1.09090       -0.82970       -0.02330
C         -0.60910       -2.25710       -0.07450
O          0.82150       -2.17860        0.00120
C          1.24330       -0.83800       -0.10260
C         -2.48310       -0.46770        0.03070
O         -3.40590       -1.26250        0.03130
H          0.93350        1.78810        0.19470
H         -0.75740        1.89890        0.10080
H         -0.97840       -2.86040        0.76400
H         -0.90910       -2.76670       -1.00200
H          1.78290       -0.65410       -1.04800
H          1.93650       -0.59460        0.71910
H         -2.69080        0.62920        0.07970
