19
gdb 16333	3.62147	1.60554	1.37744	2.5381	70.73	-0.2372	0.0736	0.3108	975.8272	0.165998	-365.016525	-365.008537	-365.007593	-365.048611	30.534
C         -0.04390        1.59440       -0.19250
C          0.05660        0.09700        0.06910
C          1.12090       -0.76090       -0.67140
N          1.65470       -1.33490        0.61710
C          2.16040       -0.17300        1.38110
C          0.70390       -0.40750        1.36670
C         -0.03120       -0.96180        2.56470
O          0.76270       -1.91030        3.24780
H          0.92300        2.09330       -0.07380
H         -0.39360        1.78790       -1.21250
H         -0.75170        2.06930        0.49570
H         -0.93170       -0.35990       -0.04730
H          0.70740       -1.55260       -1.29890
H          1.87820       -0.21240       -1.24310
H          2.69070       -0.46430        2.28120
H          2.59810        0.65920        0.83460
H         -0.27340       -0.16820        3.28200
H         -0.98560       -1.40190        2.22780
H          1.14770       -2.46980        2.55800
