18
gdb 16443	4.13375	1.91275	1.69917	1.991	70.72	-0.2388	0.0708	0.3095	837.6653	0.154579	-347.745321	-347.738504	-347.73756	-347.775863	27.441
C         -0.02830        1.55280        0.05460
C          0.03230        0.05250        0.01000
C         -0.85320       -0.82800        0.84660
C          0.63550       -0.95210        1.01790
C          1.23920       -1.74590       -0.15640
O          0.43100       -2.81670       -0.71490
C         -0.06560       -1.94570       -1.76600
C          0.67430       -0.73440       -1.16610
H          0.93180        2.00250       -0.22400
H         -0.78790        1.94070       -0.63580
H         -0.28470        1.90710        1.05840
H         -1.35890       -0.31010        1.65600
H         -1.41740       -1.65620        0.43140
H          1.12450       -0.77170        1.96860
H          2.29580       -2.01190       -0.07810
H          0.31150       -2.26010       -2.74730
H         -1.16100       -1.90850       -1.79580
H          1.31580       -0.14210       -1.81770
