12
gdb 21793	6.64955	1.16738	1.08576	2.277	57.94	-0.269	-0.0577	0.2112	1015.531	0.082391	-414.642531	-414.635495	-414.634551	-414.675178	23.878
O         -0.47660        0.42660        0.65840
C          0.10050        0.88930       -0.28560
C          1.28510        1.85340       -0.15530
C          1.23260        2.95960       -1.14840
C          1.01880        4.30060       -1.04650
N          1.05450        4.80970       -2.32220
N          1.26230        3.90510       -3.16390
O          1.38740        2.65920       -2.43780
H         -0.17350        0.63440       -1.33130
H          1.31250        2.24070        0.86470
H          2.19450        1.25950       -0.32210
H          0.85060        4.92100       -0.18330
