13
gdb 5561	3.35274	1.82768	1.26943	1.4644	56.72	-0.225	-0.0078	0.2172	900.0776	0.096129	-435.758507	-435.751248	-435.750304	-435.790473	25.954
O          0.10940        1.41630        0.42210
C          0.04580        0.01710        0.15950
C         -1.32910       -0.50430       -0.02680
C         -2.04980       -0.95090       -1.09280
O         -1.64380       -1.06110       -2.37120
N         -3.32460       -1.30490       -0.70430
C         -3.33330       -1.06010        0.57060
O         -2.18490       -0.57980        1.06120
H         -0.33610        1.86520       -0.30430
H          0.62630       -0.25790       -0.73300
H          0.52220       -0.45720        1.02360
H         -2.38320       -1.43100       -2.86870
H         -4.14750       -1.19840        1.26460
