16
gdb 566	8.62281	2.36504	2.02665	1.0403	57.2	-0.2445	0.0871	0.3316	657.4853	0.143075	-271.612772	-271.606218	-271.605273	-271.642958	23.494
C          0.04790        1.51140        0.30380
O          0.43930        0.22630       -0.12230
C          0.68010       -0.65910        0.93680
C         -0.52560       -1.27840        1.70470
C          0.22710       -2.63750        1.66250
C          1.09720       -2.07720        0.50320
H          0.81590        1.98090        0.93920
H         -0.09200        2.12380       -0.59030
H         -0.89670        1.48980        0.86810
H          1.40560       -0.22240        1.64290
H         -0.79480       -0.86560        2.67970
H         -1.40970       -1.28990        1.06010
H          0.81400       -2.80730        2.56930
H         -0.36340       -3.53300        1.46080
H          0.65950       -2.30300       -0.47310
H          2.16260       -2.31600        0.48220
