22
gdb 7388	3.47207	1.00668	0.82859	2.7117	74.84	-0.2603	0.0734	0.3337	1421.4056	0.197668	-387.338921	-387.328356	-387.327412	-387.374637	37.894
C          0.08360        1.52830        0.06210
C         -0.03130        0.00230        0.05610
O          0.60890       -0.54000        1.21120
C         -1.48080       -0.51980       -0.07690
C         -2.18930        0.06350       -1.31030
C         -1.49140       -2.05960       -0.08660
C         -2.84560       -2.68070        0.23360
O         -2.68730       -4.09260        0.21040
H          1.11960        1.81340        0.26320
H         -0.21420        1.97020       -0.89230
H         -0.54950        1.96470        0.84590
H          0.55370       -0.39460       -0.78440
H          0.16720       -0.17330        1.98550
H         -2.01970       -0.17650        0.82260
H         -2.31910        1.14650       -1.23840
H         -1.61650       -0.14720       -2.22150
H         -3.18300       -0.37400       -1.44110
H         -1.16260       -2.42630       -1.06780
H         -0.76860       -2.42610        0.64720
H         -3.18370       -2.33550        1.22550
H         -3.60710       -2.36200       -0.49570
H         -3.54330       -4.49340        0.38700
