11
gdb 4255	3.98213	2.10754	1.37815	5.1549	56.12	-0.2746	-0.066	0.2086	798.0616	0.072733	-434.584033	-434.577783	-434.576839	-434.615035	22.617
N         -0.06660        1.27500       -0.38530
C         -0.00450        0.11850        0.09070
O          1.20300       -0.51790        0.33540
C          1.22040       -1.76560        0.84960
C          0.11950       -2.45850        1.15130
C         -1.18220       -1.85590        0.92160
O         -2.25650       -2.33020        1.13260
O         -1.13380       -0.55960        0.38630
H          0.86540        1.64670       -0.55210
H          2.23510       -2.12130        0.98160
H          0.16240       -3.45590        1.56210
