17
gdb 16353	2.60897	2.27257	1.42407	3.7419	69.72	-0.2432	0.0338	0.277	907.9578	0.141927	-363.877257	-363.869314	-363.868369	-363.909467	29.538
C         -0.06580        1.57830       -0.01590
C          0.04500        0.06240        0.01670
N          1.15430       -0.50590       -0.77580
C          1.76180       -1.15980        0.27680
O          2.71400       -1.89080        0.35550
C          0.73130       -0.59320        1.23630
C          0.98120       -0.06470        2.61860
C          0.14900       -1.30410        2.42270
H          0.89110        2.04180        0.24040
H         -0.36450        1.92830       -1.00970
H         -0.82340        1.92310        0.69620
H         -0.91970       -0.40190       -0.22440
H          1.27400       -0.60820       -1.77250
H          1.98520       -0.17370        3.01460
H          0.47410        0.85000        2.90800
H         -0.92200       -1.23220        2.58200
H          0.58590       -2.26340        2.67920
