16
gdb 10027	2.40245	1.38913	0.91519	1.8673	75.93	-0.2555	0.015	0.2705	1264.1747	0.126244	-346.522428	-346.512609	-346.511665	-346.558247	33.074
C         -0.25210        1.30780       -0.08240
O          0.15980       -0.03430        0.08330
C          0.70490       -0.60210       -1.10210
C          1.31710       -1.88630       -0.74890
C          1.84260       -2.93110       -0.48000
C         -0.29440       -0.76190       -2.17160
C         -1.11570       -0.87210       -3.04450
C         -2.10720       -1.02240       -4.09900
H          0.58670        1.95230       -0.38950
H         -1.05480        1.40060       -0.82590
H         -0.62020        1.64320        0.88930
H          1.50360        0.06310       -1.47950
H          2.29850       -3.85900       -0.23700
H         -1.93500       -1.94070       -4.67080
H         -3.11910       -1.07600       -3.68320
H         -2.07740       -0.18150       -4.80020
