15
gdb 987	3.75676	3.12372	1.72832	1.7114	63.55	-0.1733	0.0597	0.2329	715.206	0.126502	-304.732336	-304.725068	-304.724124	-304.763129	26.984
C         -0.05890        1.51910        0.02290
C         -0.01590        0.02240        0.00510
C         -0.00830       -0.80300       -1.09860
N          0.01720       -2.10100       -0.67040
C          0.03620       -2.13410        0.70970
C          0.01180       -0.83020        1.15410
N         -0.06610       -0.37220        2.48730
H          0.84630        1.95810        0.46530
H         -0.14860        1.92310       -0.98970
H         -0.90890        1.89190        0.60740
H         -0.02140       -0.55940       -2.14950
H          0.02520       -2.90850       -1.26550
H          0.05390       -3.06690        1.24960
H          0.20240       -1.08690        3.15240
H          0.51980        0.44010        2.64250
