17
gdb 8291	6.03787	0.96784	0.91694	1.7703	65.96	-0.2373	-0.0293	0.208	1239.3114	0.140393	-400.968705	-400.960356	-400.959412	-401.002505	29.557
O          0.09230        1.53630        0.07850
C          0.13100        0.13350       -0.00190
C          0.22510       -0.60700        1.35970
N         -1.24370       -0.77830        1.31770
C         -1.83620       -1.97690        1.86030
C         -3.35170       -1.86520        1.92480
O         -4.11010       -2.78780        1.78490
C         -1.24800       -0.56270       -0.14820
H         -0.57410        1.77210        0.73430
H          0.88710       -0.11180       -0.74780
H          0.78100       -1.55510        1.28150
H          0.60490       -0.03350        2.21230
H         -1.56850       -2.90290        1.32060
H         -1.49190       -2.09330        2.89910
H         -3.70890       -0.83110        2.13390
H         -2.07280        0.04600       -0.53360
H         -1.18750       -1.49970       -0.72520
