18
gdb 8348	4.8735	1.26316	1.23529	2.6635	73.04	-0.2478	-0.0215	0.2263	1035.6673	0.153766	-347.765305	-347.75788	-347.756935	-347.798003	27.803
O         -0.66190        0.87140        0.74690
C          0.07970        1.00820       -0.19150
C          1.32860        1.86290       -0.19160
C          1.28680        2.94170       -1.25720
C          0.28310        4.13400       -1.36130
C          1.25290        4.29620       -2.56480
C          2.41500        3.96660       -1.58530
C          1.11060        2.76680       -2.80170
H         -0.12270        0.49310       -1.15930
H          1.45370        2.29860        0.80460
H          2.18520        1.20180       -0.38980
H         -0.75560        3.88330       -1.59540
H          0.34310        4.89040       -0.57370
H          1.23500        5.08050       -3.32110
H          2.63640        4.71050       -0.81450
H          3.33080        3.56000       -2.02470
H          1.92900        2.27220       -3.33350
H          0.13620        2.41460       -3.15220
