18
gdb 8213	2.8321	2.30018	1.65318	2.2767	66.8	-0.2315	0.0654	0.297	843.1153	0.154112	-384.937	-384.929434	-384.92849	-384.968063	30.41
O         -0.22600        1.35930        0.19740
C         -0.05470       -0.00790       -0.05220
C         -0.28760       -0.99430        1.07770
C         -1.30750       -0.83960       -0.04140
O         -2.53640       -0.25260        0.24000
C         -1.24730       -1.81330       -1.20240
C          0.24990       -1.83940       -1.60220
C          0.81050       -0.44580       -1.22120
H          0.42600        1.64320        0.84610
H          0.32920       -1.88380        1.16270
H         -0.59650       -0.55900        2.02240
H         -2.36410        0.69240        0.35370
H         -1.63340       -2.80890       -0.96230
H         -1.86480       -1.40600       -2.01110
H          0.77560       -2.62010       -1.04350
H          0.39010       -2.06450       -2.66210
H          0.66320        0.27370       -2.03510
H          1.88270       -0.47520       -0.99600
