17
gdb 19591	3.00862	2.89403	2.08912	1.5634	66.95	-0.2054	0.0797	0.2851	726.5391	0.143495	-363.784421	-363.77803	-363.777086	-363.814762	25.727
C         -0.03600        1.54410       -0.04100
N         -0.04520        0.08300        0.04000
C         -1.18590       -0.71650        0.53630
C         -0.16420       -1.90080        0.59210
C          0.75520       -0.70290        1.00360
C          0.14110       -0.39300        2.40640
O         -0.63360        0.81220        2.46300
C         -1.28150       -0.40290        2.06400
H          0.70140        1.98400        0.63580
H          0.20870        1.84890       -1.06690
H         -1.00630        1.97210        0.22500
H         -2.10100       -0.74050       -0.05600
H         -0.33730       -2.68420        1.33400
H          0.07500       -2.30900       -0.38950
H          1.83990       -0.71280        0.89260
H          0.56880       -0.74520        3.33930
H         -2.08220       -0.76380        2.70120
