16
gdb 3249	6.02706	2.29139	2.1072	1.5928	64.43	-0.2255	0.08	0.3055	677.7337	0.137931	-288.573089	-288.567103	-288.566159	-288.602558	23.807
C          0.09010        1.44280       -0.09120
C          1.33290        0.64880       -0.00100
N         -0.03450       -0.01850        0.06380
C          0.23420       -0.60080       -1.30380
C          1.64490       -0.00040       -1.32690
C          2.46670        0.52480       -2.46790
C          2.91140       -0.70360       -1.70220
H         -0.23000        1.98730        0.79220
H         -0.18830        1.90200       -1.03810
H          1.99360        0.67980        0.86050
H          0.21620       -1.69260       -1.25460
H         -0.47330       -0.26060       -2.06890
H          2.08560        0.38690       -3.47470
H          3.01870        1.44790       -2.32180
H          3.76490       -0.60780       -1.03820
H          2.83480       -1.67030       -2.19050
