15
gdb 3190	4.59024	2.29476	1.90219	1.3454	56.62	-0.2582	0.0714	0.3296	705.7158	0.123889	-345.608193	-345.601232	-345.600288	-345.638988	25.979
O          0.31270        1.48540        0.17470
C          0.08770        0.11540       -0.03680
C          0.98240       -0.54210       -1.03830
C          1.13180       -0.86400        0.43660
C         -1.36530       -0.25850        0.03620
C         -2.21480       -0.33910       -1.15700
O         -1.73840       -1.52360       -0.50490
H          0.23450        1.65770        1.11960
H          0.55230       -1.30630       -1.67480
H          1.73570        0.08880       -1.49450
H          1.99120       -0.45250        0.95450
H          0.80280       -1.83940        0.77770
H         -1.84780       -0.02020        0.98780
H         -3.28610       -0.16450       -1.07450
H         -1.77680       -0.13880       -2.13280
