17
gdb 15354	6.14942	0.89393	0.84505	4.3292	69.4	-0.2751	0.0339	0.309	1320.5713	0.141667	-363.855168	-363.846487	-363.845543	-363.889166	30.586
O         -0.12500        1.33080       -0.71250
C          0.02460        0.11820        0.01120
C         -1.33670       -0.52160        0.10720
C         -1.87030       -1.37600       -1.01570
C         -1.54660       -2.00450        0.31520
C         -0.38910       -2.98450        0.45980
C         -0.79380       -4.35760        0.14990
N         -1.12530       -5.43800       -0.09060
H          0.71960        1.79130       -0.70410
H          0.73480       -0.55480       -0.49510
H          0.42050        0.30830        1.02220
H         -2.05990        0.11730        0.60620
H         -2.90910       -1.27630       -1.30740
H         -1.19540       -1.58120       -1.84120
H         -2.39580       -2.26660        0.93890
H          0.43890       -2.71820       -0.20450
H          0.00950       -2.96880        1.48160
