20
gdb 7155	4.37696	0.79146	0.69977	1.814	80.99	-0.2476	0.0414	0.2889	1671.184	0.174022	-348.986255	-348.975627	-348.974683	-349.023531	36.176
C         -0.11400        1.57880        0.00380
C         -0.00720        0.05190        0.00320
C          0.73290       -0.49320       -1.22120
C          0.78400       -2.03340       -1.25380
O         -0.52520       -2.60740       -1.23200
C          1.56690       -2.51960       -2.39330
C          2.17660       -2.89690       -3.36160
C          2.92520       -3.36840       -4.51770
H          0.87600        2.04870       -0.00630
H         -0.65730        1.93860       -0.87740
H         -0.64430        1.93980        0.89050
H          0.51010       -0.28070        0.91330
H         -1.00520       -0.39690        0.03910
H          0.24910       -0.14440       -2.14390
H          1.76110       -0.11140       -1.24930
H          1.24780       -2.38370       -0.32220
H         -0.89120       -2.50960       -2.11820
H          2.47230       -4.27170       -4.94100
H          2.96140       -2.61190       -5.30920
H          3.95770       -3.61390       -4.24570
