19
gdb 10071	3.35857	1.2286	0.96135	4.4008	71.99	-0.2676	0.0222	0.2898	1222.1309	0.164265	-365.081067	-365.071532	-365.070588	-365.115711	33.656
C         -0.12170        1.54630        0.05520
C          0.08380        0.02890        0.00080
C          0.80230       -0.46650       -1.26940
C          2.30810       -0.12960       -1.24950
O          2.90650       -0.08910       -2.52770
C          0.54920       -1.98850       -1.42130
C          1.24980       -2.60590       -2.54600
N          1.82850       -3.08130       -3.42750
H          0.82500        2.09400        0.03650
H         -0.72060        1.89150       -0.79420
H         -0.64680        1.83190        0.97160
H          0.64790       -0.30320        0.88370
H         -0.89560       -0.46100        0.07060
H          0.37710        0.03940       -2.14460
H          2.44470        0.87230       -0.83250
H          2.82930       -0.82820       -0.57220
H          2.94520       -0.98210       -2.88770
H          0.86390       -2.50630       -0.50600
H         -0.52290       -2.18170       -1.53850
