20
gdb 15337	3.51185	1.02506	0.85869	0.1859	85.45	-0.2246	0.0576	0.2823	1420.0067	0.175319	-311.843143	-311.833386	-311.832442	-311.879503	34.105
C         -0.07990        1.55670       -0.34610
C         -0.05020        0.13830        0.23460
C         -1.40260       -0.53870        0.18700
C         -1.87070       -1.24440       -1.05380
C         -1.53400       -2.05850        0.18970
C         -0.37960       -2.91080        0.21520
C          0.58120       -3.63840        0.25030
C          1.73870       -4.52090        0.28910
H          0.90820        2.02480       -0.29690
H         -0.39690        1.54700       -1.39430
H         -0.77870        2.19690        0.20380
H          0.67750       -0.47430       -0.30880
H          0.30060        0.17260        1.27410
H         -2.17720       -0.02880        0.75570
H         -2.91340       -1.17730       -1.34410
H         -1.17460       -1.31840       -1.88240
H         -2.38950       -2.44580        0.73660
H          1.46130       -5.52160        0.63940
H          2.18980       -4.63460       -0.70330
H          2.51450       -4.14010        0.96320
