18
gdb 15798	5.41469	1.01414	0.97337	2.8298	68.8	-0.2501	-0.0211	0.229	1223.0009	0.151691	-384.931493	-384.922663	-384.921719	-384.965662	31.518
O         -0.43900        1.31970        0.11080
C         -0.07110       -0.05390        0.04560
C          0.76840       -0.32920       -1.21360
C          0.06540        0.15970       -2.46120
O          0.54730        0.90830       -3.27070
C          0.62430       -0.54140        1.30820
C          1.57670        0.34650        2.06900
C          0.22830        0.00040        2.65350
H          0.35120        1.85140       -0.03650
H         -1.02810       -0.58490       -0.04850
H          1.75050        0.15180       -1.14550
H          0.92900       -1.41220       -1.30940
H         -0.96970       -0.23470       -2.58730
H          0.88550       -1.59600        1.26900
H          2.46600       -0.10210        2.49690
H          1.71840        1.36680        1.72800
H         -0.51590        0.78820        2.66200
H          0.18520       -0.68330        3.49380
