14
gdb 5486	3.3925	2.06333	1.2892	3.7173	67.07	-0.206	-0.0297	0.1763	881.6405	0.108911	-378.7714	-378.764314	-378.76337	-378.802615	26.361
N          0.11200        1.40490        0.12190
C         -0.03150        0.00990        0.02750
C         -1.12410       -0.80880        0.05510
C         -0.65300       -2.16670       -0.00250
C          0.70450       -2.13980       -0.07590
N          1.10710       -0.80400       -0.04000
C          2.42710       -0.37180        0.01670
O          3.37700       -1.10980       -0.05510
H          0.35780        1.84090       -0.76200
H         -0.74430        1.82930        0.45530
H         -2.15230       -0.48230        0.09700
H         -1.26710       -3.05420       -0.00470
H          1.45120       -2.91170       -0.14380
H          2.49530        0.71990        0.14390
