13
gdb 1056	7.33028	1.94003	1.57714	1.3285	55.81	-0.22	0.014	0.234	740.7571	0.102792	-344.473681	-344.467394	-344.46645	-344.504224	22.717
O          0.30530        1.07210       -0.62550
C         -0.00000       -0.00620        0.23970
C         -1.39950       -0.49730        0.04480
C         -2.26630       -0.42400       -1.00190
C         -3.46860       -1.07990       -0.57520
C         -3.23770       -1.49970        0.69430
O         -1.98270       -1.14780        1.09060
H         -0.35530        1.75680       -0.47380
H          0.73020       -0.78910       -0.00000
H          0.14590        0.24820        1.30140
H         -2.06570        0.03020       -1.95890
H         -4.37720       -1.21550       -1.14060
H         -3.82540       -2.03090        1.42450
