13
gdb 2141	4.10218	3.23145	1.84941	2.6121	55.4	-0.2455	-0.0159	0.2296	654.6995	0.103044	-340.684371	-340.677957	-340.677013	-340.714815	22.495
C         -0.00770        1.46960        0.00470
N          0.01250        0.02280       -0.01590
C          0.06010       -0.81370       -1.12710
N          0.06990       -2.07030       -0.89860
C          0.02420       -2.19900        0.56100
C         -0.01360       -0.77680        1.12710
O         -0.05610       -0.38130        2.26740
H          0.89450        1.88760       -0.45350
H         -0.88680        1.86340       -0.51560
H         -0.04830        1.77140        1.05320
H          0.08630       -0.37400       -2.11980
H         -0.85920       -2.76420        0.87700
H          0.90040       -2.74020        0.93420
