20
gdb 8915	3.50266	1.2445	0.97645	1.76	77.34	-0.2546	0.0528	0.3073	1234.8755	0.173603	-348.975466	-348.965302	-348.964358	-349.010345	36.775
C          0.07100        1.59530        0.10370
C         -0.01270        0.06960        0.00490
C          0.67970       -0.48070       -1.25020
O          2.02860       -0.03930       -1.32510
C          0.59880       -2.02900       -1.36080
C         -0.84920       -2.56110       -1.41520
C          1.35080       -2.50260       -2.52260
C          1.92920       -2.91470       -3.49230
H          1.11120        1.92830        0.07940
H         -0.44790        2.07090       -0.73590
H         -0.38960        1.95540        1.02840
H          0.45090       -0.38930        0.89130
H         -1.06280       -0.24120        0.01240
H          0.20270       -0.05350       -2.14140
H          2.51500       -0.44590       -0.59890
H          1.07610       -2.43890       -0.45620
H         -1.39760       -2.10070       -2.24290
H         -0.84720       -3.64180       -1.57590
H         -1.38500       -2.35620       -0.48550
H          2.45710       -3.26560       -4.34400
