24
gdb 15424	4.56135	0.82818	0.7632	0.0956	86.57	-0.2612	0.0923	0.3535	1628.5479	0.222675	-314.271729	-314.261686	-314.260742	-314.307125	36.563
C          0.12730        1.54490       -0.22580
C          0.26280        0.02350       -0.12420
C          0.43940       -0.47030        1.31870
C          0.56080       -1.97820        1.41110
C          1.89770       -2.66800        1.25360
C          1.18470       -2.69630        2.58670
C          1.75450       -1.98410        3.79770
C          2.76800       -2.84590        4.56060
H          1.01590        2.04910        0.17040
H         -0.00240        1.86740       -1.26380
H         -0.73640        1.90470        0.34470
H         -0.62370       -0.45420       -0.56220
H          1.11620       -0.31500       -0.72520
H          1.32600        0.00810        1.75220
H         -0.41420       -0.12950        1.92200
H         -0.28190       -2.50030        0.96130
H          1.96200       -3.57660        0.66460
H          2.77470       -2.03040        1.17770
H          0.71340       -3.64550        2.83620
H          2.23590       -1.04850        3.49200
H          0.93760       -1.69860        4.47410
H          3.16290       -2.31740        5.43410
H          2.30870       -3.77600        4.91350
H          3.61280       -3.11840        3.91930
