14
gdb 4192	5.21683	1.62558	1.33715	1.036	69.44	-0.2131	-0.0352	0.1778	879.0062	0.108369	-378.659133	-378.65264	-378.651695	-378.689602	25.224
O         -0.09360        1.33720        0.04410
N          0.04260       -0.06110        0.01140
C         -1.10260       -0.63210       -0.03430
C         -2.46230       -0.09060       -0.03050
C         -3.32060       -1.12330        0.01730
N         -2.70090       -2.40540        0.11170
C         -2.00620       -2.77160       -1.14530
C         -1.25510       -2.11890       -0.02840
H          0.82270        1.62830        0.09430
H         -2.70430        0.95980       -0.07330
H         -4.40270       -1.09190       -0.00980
H         -1.87730       -3.83730       -1.30760
H         -2.23390       -2.17980       -2.02690
H         -0.57450       -2.71830        0.56530
