16
gdb 11363	6.08775	1.26014	1.06454	3.1353	66.54	-0.2429	-0.0075	0.2353	1085.2106	0.131165	-379.98613	-379.978351	-379.977407	-380.018704	28.154
C          0.07060        1.54880        0.00810
C         -0.04500        0.02480        0.00320
C         -1.46040       -0.46780        0.01330
N         -2.50910        0.26600        0.02420
C         -3.65450       -0.64430        0.03050
C         -3.08600       -2.06970        0.02180
O         -3.64350       -3.13870        0.02240
N         -1.71390       -1.84410        0.01090
H          1.12200        1.84870        0.00010
H         -0.42300        1.97930       -0.86600
H         -0.40770        1.97250        0.89390
H          0.45840       -0.39860       -0.87720
H          0.47330       -0.40540        0.87140
H         -4.28060       -0.48750        0.91600
H         -4.29440       -0.48220       -0.84420
H         -1.02710       -2.58070        0.00260
