17
gdb 3485	4.62141	3.43464	3.01301	0.0707	66.84	-0.2686	0.1042	0.3728	571.2402	0.152423	-272.551442	-272.546569	-272.545625	-272.579624	21.303
C         -0.03490        1.59680        0.05900
C          1.50480        1.41090       -0.01220
C          1.79340        0.76690        1.36080
C          0.98220       -0.51570        1.07810
C          1.78690       -1.12850       -0.09980
C          1.25160        0.08820       -0.86700
C         -0.04550        0.06310        0.00430
H         -0.45100        2.12110        0.92620
H         -0.45030        2.01920       -0.86120
H          2.16330        2.20660       -0.35980
H          2.85070        0.55560        1.54640
H          1.40980        1.36950        2.18960
H          0.65510       -1.11900        1.92470
H          2.86560       -1.26810        0.03060
H          1.33910       -2.05220       -0.47920
H          1.24410        0.18050       -1.95280
H         -0.91960       -0.54120       -0.23730
