20
gdb 7837	3.63815	1.33166	1.14837	2.1273	71.9	-0.2275	0.0734	0.3008	1125.9069	0.174484	-386.115721	-386.10648	-386.105535	-386.149796	34.285
C          0.31730        1.42500        0.47300
C          0.07500       -0.03610        0.09190
C          0.81310       -0.44000       -1.17800
O          0.50860       -0.95080        1.11060
C         -0.27140       -0.95050        2.27420
C          0.22420       -1.84020        3.38460
C          0.36580       -0.33590        3.49650
O          1.61930        0.25450        3.34420
H          1.38770        1.62590        0.58560
H         -0.07210        2.08510       -0.30890
H         -0.17810        1.68180        1.41230
H         -1.00620       -0.18850       -0.05650
H          1.89270       -0.31340       -1.04820
H          0.61720       -1.48800       -1.41830
H          0.49340        0.17950       -2.02090
H         -1.34280       -0.86130        2.09980
H         -0.50710       -2.35760        3.99620
H          1.13440       -2.39620        3.18470
H         -0.24540        0.19960        4.21630
H          1.90910        0.02640        2.45000
