14
gdb 17010	6.38132	1.39121	1.33101	2.5375	68.57	-0.2456	0.0031	0.2486	907.0543	0.106664	-345.33087	-345.324122	-345.323178	-345.361662	26.032
C         -0.06110       -1.22710       -0.08200
C         -0.01210       -0.02750       -0.01280
C          0.00610        1.41990        0.03060
C          0.05680        2.12720        1.44570
C          1.55240        1.66120        1.52390
C          1.40920        2.15240        0.04110
C          0.63110        3.32200        0.66650
O          0.54880        4.50760        0.60840
H         -0.10220       -2.28680       -0.14120
H         -0.72550        1.83680       -0.66640
H         -0.70370        2.08950        2.22160
H          2.21910        2.22670        2.17600
H          1.68250        0.58430        1.62990
H          2.15620        2.14260       -0.74860
