15
gdb 21101	3.52023	2.05876	1.32173	3.9318	64.49	-0.2087	0.0186	0.2273	892.4661	0.120498	-392.154407	-392.146234	-392.145289	-392.186906	28.971
C         -0.06860        1.41870       -0.04280
N          0.00280       -0.01960        0.05540
N          0.09910       -0.79180       -1.06910
N          0.12160       -2.03210       -0.68310
C          0.06570       -2.08870        0.67570
N          0.08350       -3.25740        1.47280
C         -0.00480       -0.79700        1.16140
N         -0.15490       -0.31980        2.45820
H          0.85050        1.89300        0.31970
H         -0.20180        1.66410       -1.09660
H         -0.91700        1.79610        0.53550
H         -0.79000       -3.77080        1.39140
H          0.81590       -3.88720        1.15930
H         -0.04890       -1.08940        3.11080
H          0.48940        0.42440        2.70010
