16
gdb 7260	4.31876	1.27687	1.01637	3.6601	63.56	-0.2501	-0.0239	0.2261	1113.5659	0.13001	-417.092283	-417.083671	-417.082727	-417.125851	30.659
C         -0.06290        1.64270        0.52300
C         -0.14100        0.23280       -0.04410
O          0.70840       -0.68700        0.65130
C         -1.58120       -0.29300       -0.11490
N         -2.56110        0.49880       -0.25400
N         -1.62590       -1.69860       -0.05640
C         -2.73770       -2.49070       -0.16640
O         -3.87030       -2.10030       -0.34650
H          0.96680        2.00630        0.48030
H         -0.71520        2.31080       -0.04040
H         -0.40430        1.65790        1.56460
H          0.24620        0.23020       -1.07130
H          0.59490       -0.53060        1.59600
H         -3.43570       -0.02150       -0.33460
H         -0.73370       -2.13640        0.13470
H         -2.48250       -3.56380       -0.07180
