24
gdb 6047	2.82586	1.42669	1.23187	1.3802	80.83	-0.263	0.0717	0.3347	1149.1694	0.220661	-351.410831	-351.400022	-351.399078	-351.445992	40.181
C          0.06430        1.55120        0.05050
C         -0.02190        0.01540        0.04670
C          0.86450       -0.53680        1.17830
C         -1.49210       -0.52170        0.04960
C         -2.29890       -0.03220        1.26820
C         -2.20910       -0.08050       -1.24420
C         -1.45570       -2.06390        0.06840
O         -2.77770       -2.56670       -0.09110
H          1.10670        1.86750       -0.06060
H         -0.50330        2.00570       -0.76490
H         -0.30330        1.97170        0.99250
H          0.41840       -0.32880       -0.90070
H          0.98360       -1.62240        1.13230
H          1.86640       -0.10000        1.11160
H          0.46730       -0.28340        2.16720
H         -2.45740        1.04950        1.23790
H         -3.27820       -0.51690        1.28040
H         -1.79880       -0.27310        2.21220
H         -1.62860       -0.36080       -2.13120
H         -3.18540       -0.56300       -1.31870
H         -2.36390        1.00120       -1.27200
H         -0.80150       -2.42290       -0.74380
H         -1.03230       -2.41750        1.01850
H         -2.74760       -3.52160        0.01180
