17
gdb 10830	4.70417	1.51411	1.20071	3.7952	65.3	-0.235	0.029	0.264	989.9224	0.143465	-401.040432	-401.032766	-401.031822	-401.072391	28.575
C         -0.01660        1.53830        0.05130
C          0.02510        0.02020       -0.00990
C          0.76810       -0.50030       -1.24070
N          0.95100       -1.94000       -1.13120
C          0.96310       -2.64690        0.03430
O          1.18630       -3.84150        0.08710
C          0.61780       -1.84870        1.29130
O          0.69180       -0.44310        1.15560
H          0.99760        1.94590        0.09680
H         -0.52120        1.94940       -0.82820
H         -0.55560        1.86210        0.94480
H         -1.00280       -0.38230       -0.02570
H          0.19270       -0.27660       -2.14650
H          1.73530        0.01680       -1.32090
H          1.22280       -2.46800       -1.94800
H         -0.38980       -2.16510        1.60900
H          1.31910       -2.14060        2.07570
