20
gdb 15902	2.71876	1.75582	1.21412	2.6988	70.1	-0.2533	0.0579	0.3112	1040.8963	0.176935	-386.125854	-386.117156	-386.116212	-386.158679	33.056
C         -0.82570        1.29030       -0.14070
C          0.01080        0.01910       -0.07320
C          1.43470        0.01950       -0.70190
C          1.90540       -0.87070        0.46920
O          3.19190       -0.65320        1.03500
C          0.64170       -0.44660        1.28280
C          0.94510        0.63960        2.31310
O          1.70360        0.12340        3.39140
H         -0.28600        2.15630        0.25580
H         -1.09840        1.51870       -1.17700
H         -1.75510        1.18640        0.42970
H         -0.56770       -0.81090       -0.49260
H          1.56050       -0.35780       -1.71930
H          1.88770        1.01750       -0.64530
H          1.87160       -1.93260        0.21120
H          3.42630        0.27010        0.89610
H          0.12310       -1.26210        1.79490
H          1.45770        1.49600        1.83950
H          0.01660        1.03360        2.73970
H          2.47460       -0.30000        2.99030
