12
gdb 21602	3.76369	2.02246	1.3174	2.7945	59.5	-0.2268	-0.0716	0.1552	835.1396	0.084613	-414.655978	-414.64931	-414.648366	-414.686734	24.693
N          0.20110        1.32990       -0.30300
C          0.04130       -0.01910       -0.06640
C         -1.07210       -0.80690       -0.00740
O         -0.72240       -2.07480        0.33730
N          0.62200       -2.15220        0.51510
C          1.08840       -0.93850        0.27300
C          2.52320       -0.66310        0.33130
O          2.99500        0.42470        0.06570
H          1.15910        1.58600       -0.50060
H         -0.47370        1.75890       -0.91720
H         -2.12330       -0.63710       -0.16980
H          3.15620       -1.52200        0.62500
