20
gdb 13283	6.66481	0.85025	0.7994	1.3983	72.37	-0.2445	0.0775	0.322	1476.0829	0.175936	-386.113203	-386.10406	-386.103116	-386.148356	31.514
C          0.09480        1.07080       -0.82440
C         -0.08570       -0.03690        0.19950
O         -1.38250       -0.58010        0.05340
C         -1.66000       -1.62240        0.95920
C         -3.07440       -2.10420        0.69280
C         -3.30780       -2.98120       -0.55540
C         -3.73730       -4.05790        0.46160
O         -3.43040       -3.19110        1.57670
H          1.09190        1.51250       -0.73670
H         -0.02370        0.67880       -1.83860
H         -0.64890        1.85820       -0.67280
H          0.67370       -0.82450        0.05660
H          0.04760        0.35440        1.22230
H         -0.95190       -2.45950        0.83480
H         -1.58080       -1.27880        2.00450
H         -3.76930       -1.25990        0.79030
H         -4.08140       -2.63630       -1.24190
H         -2.40120       -3.20640       -1.11990
H         -4.80040       -4.32840        0.43890
H         -3.14030       -4.97740        0.48310
