13
gdb 1206	7.79286	1.33457	1.15589	1.9312	56.66	-0.2876	-0.0022	0.2855	957.2002	0.100521	-340.648166	-340.640573	-340.639629	-340.680495	25.531
C         -0.16250        1.42280        0.01160
C          0.09950       -0.05400        0.00110
N          1.26700       -0.54080       -0.01280
O         -1.09860       -0.72710        0.00880
C         -1.04360       -2.14160        0.00050
C         -2.41390       -2.65470        0.01100
N         -3.48040       -3.09580        0.01910
H          0.78480        1.95930        0.00570
H         -0.75660        1.70600       -0.86250
H         -0.74020        1.69640        0.89960
H          1.29840       -1.55850       -0.01870
H         -0.52830       -2.51510       -0.89520
H         -0.51100       -2.52490        0.88180
