21
gdb 6562	3.82205	1.26117	1.2026	2.6354	75.47	-0.2429	0.0807	0.3237	1129.4988	0.186923	-366.238067	-366.228869	-366.227925	-366.271467	34.915
C          0.13700        1.55230        0.06300
C          0.06830        0.01620        0.02140
C          0.64380       -0.58400        1.30430
O         -1.29190       -0.40250       -0.05240
C          0.81060       -0.55330       -1.20610
N          0.09500       -0.19620       -2.43080
C          0.65850        0.85530       -3.27310
C          0.71590       -0.57030       -3.69530
H          1.16990        1.91000        0.14210
H         -0.30990        1.98680       -0.83550
H         -0.42280        1.92010        0.92750
H          0.08470       -0.21850        2.17040
H          0.56320       -1.67460        1.28520
H          1.69580       -0.31000        1.43280
H         -1.52950       -0.32080       -0.98740
H          1.86220       -0.22010       -1.22010
H          0.80470       -1.64640       -1.12980
H         -0.05610        1.53650       -3.72600
H          1.58870        1.31860       -2.94940
H          1.68600       -1.06250       -3.65590
H          0.04390       -0.94830       -4.46060
