13
gdb 5552	3.39807	1.97804	1.32911	1.5532	56.82	-0.2087	0.005	0.2137	876.2083	0.095261	-435.746739	-435.739301	-435.738357	-435.77913	25.976
C         -0.32660        1.26850       -0.06550
O          0.63920        0.22300        0.12470
C          0.86710       -0.54280       -0.94130
C          0.58360       -1.83090       -1.26700
O         -0.12820       -2.73010       -0.55790
N          1.15010       -2.13770       -2.48750
C          1.73840       -1.04120       -2.85240
O          1.62400       -0.02450       -1.98040
H          0.02150        1.98770       -0.81430
H         -1.29020        0.85000       -0.37610
H         -0.43150        1.76600        0.89960
H         -0.11210       -3.55190       -1.06270
H          2.29510       -0.85510       -3.75700
