16
gdb 3217	3.47367	3.1567	2.21603	2.6337	59.7	-0.2368	0.0745	0.3113	659.7437	0.137687	-325.73039	-325.723759	-325.722815	-325.7606	25.561
C         -0.17010        1.55990       -0.01490
C         -0.00600        0.04860       -0.02210
C          0.72120       -0.61490       -1.19770
N          2.12760       -0.13620       -1.14630
C          1.70030       -1.28000       -0.29790
C          1.08850       -0.60230        0.93630
O          1.93440        0.25010        1.65450
H          0.76590        2.05670       -0.28210
H         -0.93590        1.87450       -0.73220
H         -0.46930        1.91310        0.97680
H         -0.96630       -0.44780        0.15220
H          0.30000       -0.96980       -2.13070
H          2.61750       -0.51820       -1.95320
H          2.19470       -2.24080       -0.37450
H          0.64550       -1.29950        1.65070
H          2.46100        0.70900        0.98540
