18
gdb 18981	4.09713	2.1377	1.73393	2.2176	70.27	-0.2286	0.0721	0.3007	798.3166	0.156909	-347.752117	-347.746121	-347.745177	-347.7819	25.098
C         -0.02560        1.53720        0.13040
C          1.41650        2.05410        0.01500
C          2.17530        1.29210       -1.07040
C          1.39060        0.50390       -2.16580
O          2.57490       -0.35530       -2.36110
C          2.41010       -0.23170       -0.89800
C          0.88830       -0.48290       -1.06540
C         -0.06890        0.00550        0.02070
H         -0.49810        1.88240        1.05520
H         -0.61100        1.95930       -0.69630
H          1.41570        3.12700       -0.20660
H          1.94810        1.93950        0.96930
H          3.05230        1.81220       -1.46150
H          0.88640        0.86700       -3.06290
H          3.12960       -0.75160       -0.26200
H          0.66550       -1.47960       -1.45230
H          0.20780       -0.46070        0.97600
H         -1.08950       -0.32820       -0.19690
