17
gdb 19021	3.32497	2.36835	1.96647	0.1591	66.85	-0.2266	0.046	0.2726	762.1355	0.143435	-363.767943	-363.761398	-363.760453	-363.798214	26.246
C         -0.03200        1.57070        0.08880
C          0.06470        0.06330       -0.07320
C          0.47530       -0.72440       -1.25010
C          1.77290       -0.27420       -1.94480
O          2.06050        1.14490       -2.01410
C          2.86380        1.07030       -0.80030
C          2.48630       -0.40670       -0.60630
N          1.21980       -0.85260        0.10450
H          0.51110        2.12340       -0.67200
H         -1.08880        1.84740        0.01090
H          0.30620        1.87410        1.08550
H         -0.76320       -0.42640        0.44160
H         -0.12530       -1.54630       -1.63190
H          2.03850       -0.80640       -2.86040
H          3.92700        1.21110       -1.03230
H          2.56160        1.79400       -0.03950
H          3.28310       -1.11890       -0.40000
