12
gdb 920	5.67614	2.78831	1.8698	4.0148	59.34	-0.2165	-0.0382	0.1783	629.1283	0.093535	-323.448965	-323.443695	-323.442751	-323.477888	20.367
O         -0.04890       -0.08140        0.00400
C          0.01710        1.13650        0.00910
N         -1.16670        1.90680        0.02880
C         -1.22850        3.26560        0.03620
C         -0.08880        4.00770        0.02460
C          1.15690        3.31590        0.00460
C          1.21560        1.95510       -0.00290
H         -2.01430        1.35610        0.03740
H         -2.22240        3.69710        0.05170
H         -0.13790        5.08760        0.03060
H          2.07770        3.89180       -0.00490
H          2.15590        1.41790       -0.01810
