17
gdb 9485	2.94147	1.70773	1.49925	3.4074	68.88	-0.2899	0.0172	0.3072	932.5554	0.141208	-363.86848	-363.860132	-363.859188	-363.900939	30.965
C          0.00380        1.59740       -0.02830
C          0.07600        0.08130        0.00990
C          1.06360       -0.68150       -0.91770
C          1.34800       -1.66630        0.24620
C          0.77430       -0.60270        1.23400
O          1.76390        0.26830        1.74490
C         -0.09240       -1.09540        2.31240
N         -0.76480       -1.50130        3.16120
H          0.98990        2.04090        0.12680
H         -0.37670        1.93000       -0.99980
H         -0.66770        1.98350        0.74530
H         -0.92380       -0.35240       -0.09040
H          0.65610       -1.10200       -1.83840
H          1.93820       -0.07350       -1.16040
H          0.72240       -2.56070        0.20450
H          2.38360       -1.95740        0.43620
H          2.29820       -0.21910        2.38220
