9
gdb 333	5.7683	2.8663	2.03108	3.263	45.03	-0.3019	-0.0199	0.2821	566.4572	0.05969	-284.048718	-284.042467	-284.041523	-284.078408	21.363
O         -0.05250        1.44480        0.02860
C          0.03710        0.03430       -0.00580
C          0.69350       -0.47720       -1.21300
C          1.23900       -0.86250       -2.21030
C          0.71130       -0.49420        1.20670
N          1.23630       -0.88010        2.16010
H          0.83670        1.80320       -0.08040
H         -1.00090       -0.31930        0.01960
H          1.71780       -1.21110       -3.09290
