20
gdb 11824	3.62567	1.59996	1.31343	1.3013	75.11	-0.248	0.0723	0.3203	1002.9107	0.176327	-348.979019	-348.970558	-348.969614	-349.011543	32.507
C         -0.16190        1.48610       -0.00760
C         -0.01010       -0.03310       -0.00790
C          1.15090       -0.56890       -0.89780
O          1.57080        0.32960       -1.89850
C          2.03530       -0.74630        0.37110
C          0.75280       -0.61050        1.20200
C          0.61170       -0.26270        2.65240
C          0.22680       -1.64050        2.15890
H          0.78760        1.98640        0.20180
H         -0.51510        1.84220       -0.97940
H         -0.88330        1.79750        0.75510
H         -0.97920       -0.50180       -0.20890
H          0.88890       -1.54520       -1.32910
H          2.32970       -0.05400       -2.34880
H          2.60660       -1.67450        0.46490
H          2.71060        0.10660        0.49570
H          1.51590       -0.16470        3.24520
H         -0.18460        0.41470        2.94480
H         -0.82940       -1.88960        2.11680
H          0.87000       -2.47540        2.42040
