17
gdb 3521	5.45396	2.53958	2.24172	0.047	68.99	-0.2646	0.1061	0.3706	665.6695	0.150069	-272.510742	-272.504974	-272.50403	-272.539864	23.803
C         -0.01500        1.51130        0.01060
C          1.31510        0.75250       -0.00680
C          0.01820        0.02430        0.00200
C         -0.57590       -1.03870        0.94650
C         -1.82680       -1.03850        0.01440
C         -0.59460       -1.02820       -0.94240
C          0.04230       -2.10480       -0.01010
H         -0.28760        2.02620        0.92710
H         -0.30570        2.03640       -0.89430
H          1.89700        0.77990       -0.92330
H          1.91510        0.76970        0.89810
H         -0.56090       -1.03770        2.03800
H         -2.43050       -1.95050        0.01530
H         -2.44660       -0.13910        0.02560
H         -0.60140       -1.01490       -2.03380
H          1.13200       -2.18050       -0.02140
H         -0.43550       -3.08860       -0.01090
