13
gdb 1599	3.97842	2.31601	1.53133	3.4126	55.87	-0.2409	0.0186	0.2595	758.8159	0.100878	-340.624424	-340.616608	-340.615664	-340.656319	28.107
N         -0.19000        1.57580       -0.11010
C          0.00880        0.12890       -0.01360
C         -1.25050       -0.57630        0.20490
C         -2.28190       -1.17550        0.35780
C          0.82290       -0.43570       -1.22270
N          0.68450       -1.76180       -1.46390
O          1.58030        0.29360       -1.83200
H          0.65470        1.94540       -0.54580
H         -0.93760        1.75460       -0.77620
H          0.65660       -0.05940        0.85720
H         -3.19990       -1.68780        0.51110
H         -0.06970       -2.28010       -1.04530
H          1.18030       -2.15900       -2.24570
