16
gdb 14683	11.57745	0.62942	0.62215	5.4204	71.36	-0.2672	0.0024	0.2696	1727.1422	0.128863	-379.929291	-379.920038	-379.919094	-379.96478	30.276
C          0.02640        1.37260        0.10470
O          0.05990       -0.04760       -0.00620
C         -1.13140       -0.66420        0.02970
N         -1.20870       -1.91790       -0.07000
C         -2.52750       -2.50860       -0.01880
C         -2.74980       -3.35870       -1.28880
C         -4.03860       -4.04440       -1.27780
N         -5.06500       -4.57470       -1.25020
H          1.06420        1.70520        0.07610
H         -0.52000        1.82620       -0.73050
H         -0.42680        1.68910        1.05140
H         -1.99510        0.00840        0.15540
H         -2.58970       -3.16910        0.85390
H         -3.33860       -1.76780        0.07250
H         -2.69230       -2.71960       -2.17650
H         -1.94400       -4.09460       -1.37360
