15
gdb 15331	3.37685	1.14764	0.91228	3.0479	72.27	-0.2424	-0.0281	0.2143	1249.3701	0.116658	-362.617098	-362.60835	-362.607406	-362.652496	29.484
C          0.09330        1.50940       -0.10310
C          0.03840        0.05690       -0.04200
C         -0.01200       -1.14480        0.01910
C         -0.04570       -2.58170        0.04800
N         -0.34350       -3.24910        1.32070
C         -1.32110       -3.37740        0.22720
C         -2.61950       -2.67870        0.44850
O         -3.64940       -3.00690       -0.08430
H          0.91080        1.84670       -0.74960
H         -0.83890        1.92650       -0.49930
H          0.25590        1.93990        0.89090
H          0.67700       -3.06430       -0.60810
H          0.19700       -4.10610        1.40500
H         -1.39570       -4.30930       -0.32750
H         -2.55630       -1.82360        1.15300
