20
gdb 17493	2.89343	2.37302	1.60988	0.4368	78.25	-0.1994	0.0911	0.2905	886.602	0.176479	-311.808108	-311.800256	-311.799311	-311.839481	31.509
C         -0.03460        1.53010        0.08500
C          0.00960        0.02960        0.01530
C         -0.90580       -0.84710        0.83160
C          0.58700       -0.96790        1.00690
C          1.29800       -1.72210       -0.14700
C          0.36700       -2.19680       -1.23410
C          0.73180       -0.73610       -1.15640
C          1.42290       -0.01490       -2.27910
H          0.94390        1.98040       -0.11590
H         -0.74530        1.94870       -0.63880
H         -0.34910        1.85880        1.08100
H         -1.40040       -0.31870        1.64240
H         -1.51650       -1.63810        0.41110
H          1.06870       -0.76590        1.95590
H          2.31460       -2.08750       -0.06600
H          0.86890       -2.72520       -2.04050
H         -0.62650       -2.58190       -1.03370
H          0.70400        0.41350       -2.98890
H          2.05440        0.80340       -1.91560
H          2.06600       -0.70230       -2.83840
