22
gdb 11453	3.84248	1.2456	0.9973	0.2557	85.55	-0.224	0.0337	0.2577	1262.3708	0.20051	-313.100727	-313.091777	-313.090833	-313.1342	33.474
C          0.04070        1.58590        0.16820
C          0.02420        0.05990        0.04120
C          0.65870       -0.46930       -1.25590
C          0.74980       -2.01930       -1.30720
C          0.51470       -2.40690       -2.78540
C         -0.18890       -1.19290       -3.35940
C         -0.82630       -1.22350       -4.71260
C         -0.10040       -0.15340       -2.52670
H          1.06450        1.97480        0.12790
H         -0.52580        2.06480       -0.63720
H         -0.39990        1.90900        1.11670
H          0.55940       -0.37810        0.89410
H         -1.00860       -0.30750        0.10540
H          1.67030       -0.03510       -1.32480
H          1.69390       -2.39970       -0.90750
H         -0.05310       -2.43890       -0.68980
H          1.46010       -2.58480       -3.31940
H         -0.07130       -3.32780       -2.89510
H         -1.61690       -1.98350       -4.76270
H         -1.26570       -0.25760       -4.97660
H         -0.09590       -1.48790       -5.48870
H         -0.49230        0.83550       -2.74350
