17
gdb 7765	3.38178	1.8605	1.24672	4.2634	71.19	-0.2383	-0.0306	0.2077	961.935	0.144043	-363.918636	-363.911257	-363.910313	-363.950101	28.314
C         -0.00800        1.56460        0.01300
C          0.05470        0.03950       -0.00780
C          0.64810       -0.50610       -1.31250
C          0.96530       -1.97280       -1.19810
C          1.21930       -2.54090       -0.01760
C          1.24820       -1.75600        1.24390
O          1.63190       -2.22350        2.30260
N          0.85730       -0.44170        1.11600
H          0.99470        1.99520       -0.07300
H         -0.61870        1.93410       -0.81610
H         -0.45750        1.92690        0.94390
H         -0.97360       -0.35170        0.07580
H         -0.05520       -0.32580       -2.13260
H          1.56680        0.04510       -1.56490
H          1.01460       -2.55650       -2.11390
H          1.47320       -3.58880        0.09020
H          0.75360        0.03410        2.00190
