16
gdb 7894	3.29721	1.86036	1.33698	4.4334	67.67	-0.2331	-0.057	0.1761	925.9814	0.131492	-379.963508	-379.955855	-379.954911	-379.996126	28.374
C          0.09890        1.55550        0.05550
C         -0.01790        0.02950       -0.01990
C          0.70250       -0.57510       -1.24820
C          1.94550       -1.25450       -0.68740
O          2.87580       -1.71420       -1.29540
C          1.82000       -1.26180        0.82690
N          2.64200       -1.74890        1.66980
N          0.63540       -0.63850        1.10740
H          1.14790        1.86850        0.02440
H         -0.42860        2.02360       -0.78210
H         -0.34100        1.93500        0.98360
H         -1.08050       -0.24020       -0.03040
H          0.09090       -1.33710       -1.74310
H          0.96910        0.16820       -2.00290
H          3.41550       -2.16830        1.14960
H          0.39740       -0.41110        2.06000
