14
gdb 21079	3.56894	1.92506	1.26052	2.3864	67.89	-0.2602	-0.0627	0.1975	901.5287	0.108228	-378.753065	-378.745805	-378.744861	-378.785072	25.379
C         -0.02790        1.44040        0.01560
N         -0.00930       -0.01170        0.05310
N         -0.03270       -0.69130       -1.09750
C         -0.00770       -1.98440       -0.74750
C          0.03220       -2.14000        0.64070
C          0.03040       -0.84240        1.14170
C          0.06270       -0.37730        2.52390
O          0.09810       -1.11620        3.48290
H          0.87080        1.85600        0.47990
H         -0.05850        1.72660       -1.03470
H         -0.91110        1.83440        0.52600
H         -0.01970       -2.74140       -1.51690
H          0.05910       -3.04290        1.22770
H          0.05350        0.72720        2.65430
