13
gdb 5284	5.19858	1.58439	1.23142	5.3351	62.35	-0.24	-0.0282	0.2118	903.2819	0.098597	-394.85065	-394.843931	-394.842986	-394.881789	24.899
N         -0.11100        1.37810       -0.00040
C          0.02670        0.00460       -0.16380
O          1.09460       -0.51750       -0.41560
C         -1.22270       -0.76280       -0.05800
C         -1.42260       -2.11010        0.14170
N         -2.75790       -2.40570        0.19600
C         -3.37470       -1.25540        0.01930
N         -2.49930       -0.22510       -0.12060
H          0.77550        1.86150        0.05030
H         -0.79510        1.70410        0.66680
H         -0.66160       -2.86500        0.26240
H         -4.44450       -1.11130       -0.01720
H         -2.72560        0.72010       -0.38360
