14
gdb 6078	4.45166	1.27022	1.2474	1.7334	54.48	-0.2517	0.0235	0.2752	998.0363	0.106783	-453.069829	-453.061319	-453.060375	-453.103979	29.919
N         -0.12690        1.00820        0.32470
C         -0.17270       -0.30560       -0.05170
O          0.75640       -1.07220        0.07010
C         -1.49350       -0.70770       -0.72680
O         -1.58230       -2.11160       -0.86800
C         -1.83970       -2.77220        0.29670
N         -1.79230       -4.11850        0.08150
O         -2.12210       -2.22910        1.33820
H          0.67580        1.29600        0.86270
H         -0.97570        1.53320        0.45610
H         -2.34610       -0.32170       -0.15980
H         -1.51870       -0.30180       -1.74190
H         -1.28500       -4.44720       -0.72340
H         -1.76000       -4.68750        0.91060
