13
gdb 16789	3.50945	2.08616	1.48373	2.9727	58.88	-0.2508	-0.037	0.2138	801.3873	0.095915	-398.612764	-398.606379	-398.605434	-398.643449	24.229
O          0.05620       -0.01470       -0.10630
C          0.00060        1.18520       -0.05890
C         -1.26290        2.05260       -0.08370
C         -0.80350        3.34850       -0.76120
O         -1.46830        4.08690       -1.43790
C          0.68180        3.47110       -0.52400
N          1.01660        3.21760        0.89480
C          1.18310        2.12240       -0.08620
H         -2.09800        1.57560       -0.59690
H         -1.56130        2.27640        0.94730
H          1.27380        4.15860       -1.11670
H          1.93250        3.61990        1.08550
H          2.16950        1.74870       -0.33430
