17
gdb 8044	3.39443	1.84236	1.50296	4.1177	73.31	-0.2995	0.0255	0.3251	890.8252	0.143151	-326.702028	-326.694826	-326.693882	-326.733232	27.85
C         -0.02780        1.47550        0.03140
C          0.03210       -0.02660        0.01310
C          0.61480       -0.95990       -1.09480
C          0.06830       -1.91930       -0.00280
C          0.71380       -0.97690        1.05020
C         -1.20290       -1.00910        0.03590
C         -2.05850       -1.02670        1.21080
N         -2.75010       -1.02850        2.13810
H          0.98070        1.90220        0.01710
H         -0.56930        1.86060       -0.83920
H         -0.53480        1.83500        0.93280
H          0.10250       -0.96080       -2.06120
H          1.70020       -0.93840       -1.21630
H          0.06660       -3.00840       -0.01150
H          1.80610       -0.95490        1.07060
H          0.29440       -0.99390        2.05830
H         -1.81260       -1.01270       -0.87230
