20
gdb 18408	3.03408	2.05495	1.38079	2.0322	73.54	-0.2542	0.0797	0.3339	939.0652	0.179957	-349.005688	-348.998592	-348.997648	-349.036644	28.636
C         -0.01690        1.51050        0.01330
C          1.36650        2.18640        0.00850
C          2.23160        1.88860        1.24810
C          2.88870        0.52410        1.17120
O          2.85170       -0.32250        2.32680
C          2.09750       -0.71250        1.17240
C          0.58330       -0.68780        1.25060
C         -0.05070       -0.02880        0.01060
H         -0.57410        1.86780        0.89100
H         -0.57480        1.86660       -0.86160
H          1.91740        1.89760       -0.89740
H          1.21260        3.26940       -0.06540
H          3.00870        2.65420        1.35270
H          1.62100        1.93960        2.15580
H          3.84570        0.50320        0.64610
H          2.51720       -1.57340        0.64810
H          0.21400       -1.71400        1.35680
H          0.28190       -0.15350        2.15780
H         -1.09860       -0.34310       -0.06200
H          0.44150       -0.40920       -0.89520
