15
gdb 16635	3.13103	2.39014	1.57736	3.2703	59.71	-0.2443	0.0017	0.246	799.2582	0.120694	-399.81599	-399.809215	-399.808271	-399.846894	25.999
N          0.17620        1.38980        0.40840
C         -0.06170        0.00110        0.03310
C         -1.50930       -0.40100       -0.12700
C         -2.27730        0.14930       -1.31990
C         -1.57570       -1.17090       -1.41570
O         -0.30970       -1.14230       -2.05670
C          0.57390       -0.41110       -1.31610
O          1.66820       -0.12920       -1.70840
H          1.16730        1.58750        0.28530
H         -0.31320        2.00280       -0.23870
H          0.40330       -0.63380        0.79940
H         -2.06740       -0.71550        0.74510
H         -3.35880        0.14560       -1.24540
H         -1.86640        0.97380       -1.89460
H         -2.09030       -2.11180       -1.55650
