15
gdb 2075	4.49447	2.55537	1.76819	2.8725	57.08	-0.2324	-0.0213	0.2111	704.6324	0.126251	-345.676243	-345.669923	-345.668979	-345.706559	23.54
O          0.03420       -0.06270        0.12000
C         -0.01820        1.13460       -0.02840
C         -1.32550        1.91240       -0.08460
C         -1.25820        3.10430       -1.05530
C          0.04240        3.87870       -0.85100
O          1.16680        3.03780       -1.05270
C          1.24960        1.99020       -0.10440
H         -2.13900        1.21940       -0.31250
H         -1.49790        2.28870        0.93530
H         -1.28880        2.74430       -2.08980
H         -2.12110        3.76430       -0.91320
H          0.13910        4.69100       -1.57640
H          0.07240        4.32150        0.16040
H          1.44160        2.39270        0.90870
H          2.09200        1.35460       -0.38400
