20
gdb 18248	4.19014	1.53406	1.27633	0.2514	79.64	-0.2242	0.0219	0.2461	1026.6961	0.178484	-311.870444	-311.862833	-311.861888	-311.902261	29.896
C         -0.11960        1.61270        0.02230
C         -0.08580        0.08150       -0.00880
C          0.72750       -0.50210       -1.18070
C          2.22030       -0.21400       -1.14560
C          2.95740       -1.31390       -1.31800
C          2.10960       -2.53670       -1.42690
C          1.30510       -2.86020       -0.18180
C          0.68460       -2.03260       -1.28040
H          0.87950        2.03830        0.16150
H         -0.52480        2.01960       -0.91130
H         -0.74780        1.97560        0.84180
H          0.31740       -0.29930        0.93700
H         -1.11230       -0.29970       -0.07990
H          0.30470       -0.07680       -2.10530
H          2.61810        0.78190       -0.98660
H          4.04120       -1.34640       -1.34110
H          2.38180       -3.33890       -2.10400
H          0.93480       -3.87460       -0.07230
H          1.60340       -2.38520        0.74690
H         -0.12220       -2.48470       -1.84580
