15
gdb 3309	5.17914	2.24554	2.09502	2.7354	60.65	-0.2393	-0.0184	0.2209	674.8847	0.125221	-308.495275	-308.488933	-308.487989	-308.525721	23.516
O         -0.77590        0.99310       -0.30510
C          0.22920        0.96990        0.36200
C          1.38820        1.91530        0.21110
C          1.32550        3.02520       -0.88140
C          1.40840        4.09120        0.22060
C          0.26940        3.93810        1.18560
C          1.45180        3.01330        1.30580
H          0.34040        0.24010        1.19880
H          2.31890        1.33940        0.17930
H          2.20040        3.00430       -1.53370
H          0.41950        3.03110       -1.49220
H          1.99050        5.00250        0.16340
H          0.20860        4.69640        1.95940
H         -0.69380        3.56620        0.84570
H          2.05710        2.95970        2.20190
