20
gdb 10782	2.52812	1.95701	1.46048	1.0806	69.35	-0.2526	0.0425	0.2951	955.085	0.175648	-386.126909	-386.117623	-386.116679	-386.160143	34.611
C          0.67750        1.54630        0.15540
C          0.09580        0.14000        0.02780
C          0.84600       -0.82180       -0.95190
O          1.68410       -0.28480       -1.94880
C          1.47670       -1.58450        0.25980
C          2.94960       -1.29120        0.53710
C          0.44970       -0.85170        1.18500
O          0.87180       -0.34620        2.43020
H          1.75620        1.55510        0.35560
H          0.51850        2.11210       -0.76730
H          0.19540        2.08770        0.97470
H         -0.97690        0.22720       -0.16990
H          0.14170       -1.45860       -1.49310
H          2.33150        0.29020       -1.52930
H          1.34290       -2.66980        0.21980
H          3.17720       -0.21940        0.59430
H          3.25630       -1.73480        1.48890
H          3.57940       -1.71040       -0.25310
H         -0.39860       -1.49940        1.42020
H          1.62370        0.23670        2.28650
