20
gdb 8552	2.76318	2.60654	1.65723	0.3335	78.98	-0.2333	0.0936	0.3269	868.9893	0.177319	-311.831735	-311.824136	-311.823191	-311.862885	30.417
C         -0.07670        1.47610        0.02650
C          0.02900       -0.02020       -0.01610
C          0.01470       -0.88290       -1.28120
C         -0.24690       -2.08660       -0.34060
C          1.07000       -2.21110        0.46710
C          0.69970       -0.86460        1.09540
C          1.31380       -0.27460        2.33100
C         -0.76470       -1.06290        0.74950
H          0.83070        1.95260       -0.36460
H         -0.91970        1.82460       -0.58150
H         -0.23180        1.84940        1.04340
H         -0.85860       -0.64710       -1.89830
H          0.91070       -0.91980       -1.91430
H         -0.77280       -2.97080       -0.69480
H          1.01960       -3.01100        1.21320
H          2.00600       -2.29810       -0.09990
H          2.34900        0.04110        2.15170
H          0.76090        0.59930        2.68890
H          1.32970       -1.00740        3.14620
H         -1.66390       -0.99200        1.34600
