16
gdb 19317	4.7621	1.67593	1.48385	0.9143	75.76	-0.2064	0.0365	0.2429	876.4055	0.129855	-309.362909	-309.356031	-309.355087	-309.393503	28.009
C          0.04990       -1.18070       -0.02080
C          0.02360        0.02390       -0.01910
C         -0.02860        1.44140        0.01220
C          0.25680        2.30730       -1.20020
C          1.13400        2.45460        0.00270
C          0.48570        3.21290        1.18950
C         -0.92070        3.68480        0.93040
C         -0.66830        2.22880        1.20330
H          0.07790       -2.24160       -0.02970
H          0.71080        1.75630       -2.01750
H         -0.43200        3.07800       -1.52660
H          2.18860        2.21510       -0.02630
H          1.06800        3.57080        2.02790
H         -1.36530        4.21200        1.76980
H         -1.25310        4.06120       -0.03030
H         -1.09890        1.70590        2.04640
