21
gdb 3991	5.29897	0.74675	0.71261	0.7178	79.32	-0.2378	0.0182	0.256	1654.9943	0.18597	-366.239746	-366.229382	-366.228438	-366.276079	36.184
C         -0.06780        1.55200       -0.03820
C          0.00700        0.02350        0.00290
C          0.72690       -0.50940        1.24620
C          0.79090       -2.04740        1.28700
C          1.52140       -2.58030        2.49150
C          2.99890       -2.33230        2.64680
N          0.81630       -3.22630        3.34070
O          1.58830       -3.65730        4.43640
H          0.93310        1.99800       -0.03490
H         -0.58500        1.90250       -0.93690
H         -0.60660        1.94560        0.83090
H         -1.00700       -0.39570       -0.03440
H          0.51900       -0.34360       -0.89680
H          1.74220       -0.09260        1.28270
H          0.21640       -0.15180        2.14980
H         -0.22220       -2.46060        1.28720
H          1.29240       -2.40770        0.37730
H          3.18920       -1.60960        3.44820
H          3.50860       -3.25600        2.93420
H          3.43720       -1.94710        1.72370
H          0.94050       -4.14320        4.95710
