18
gdb 13945	3.23579	1.92795	1.52245	2.2294	67.7	-0.239	0.0619	0.3009	892.9797	0.153484	-384.907711	-384.899919	-384.898975	-384.940015	29.257
O          0.06660        1.24330       -0.41100
C          0.07750       -0.07870        0.06720
C         -0.01020       -0.31510        1.59100
O         -1.18540       -1.13220        1.41900
C         -1.29770       -0.78240        0.02720
C         -2.53060        0.00930       -0.46580
C         -2.50700       -0.85630       -1.75620
C         -1.60880       -1.88070       -1.00650
H          0.96970        1.57390       -0.42460
H          0.86390       -0.67470       -0.41450
H          0.80860       -0.86440        2.06960
H         -0.21950        0.60500        2.15210
H         -3.39100       -0.22140        0.16870
H         -2.42320        1.09020       -0.56370
H         -3.46460       -1.21790       -2.13510
H         -1.97330       -0.35910       -2.56980
H         -0.76520       -2.33100       -1.53770
H         -2.19850       -2.67500       -0.53960
