20
gdb 13141	3.46811	1.31674	1.08749	2.4869	71.87	-0.246	0.0797	0.3256	1166.0381	0.176166	-386.123611	-386.114767	-386.113822	-386.157398	32.482
C          0.04740        1.48810        0.19440
C          0.26090       -0.00470        0.01080
O          0.46310       -0.59070        1.28480
C          0.63470       -1.99450        1.27210
C          2.10410       -2.43170        1.01720
C          2.35530       -2.36560        2.54990
C          0.81190       -2.43240        2.75460
O          0.19080       -1.65120        3.73090
H          0.92220        1.94760        0.66340
H         -0.11960        1.96960       -0.77360
H         -0.82240        1.67670        0.83020
H         -0.61410       -0.46730       -0.47430
H          1.12920       -0.19320       -0.63930
H         -0.15820       -2.46730        0.67610
H          2.15860       -3.44990        0.62190
H          2.70210       -1.77630        0.38050
H          2.96330       -3.14820        3.00850
H          2.73990       -1.38880        2.85330
H          0.48370       -3.46710        2.89590
H          0.16510       -0.75570        3.36830
