16
gdb 18517	5.54261	1.12345	1.05742	1.7483	73.49	-0.2316	0.0283	0.2599	1158.119	0.129217	-346.530202	-346.522235	-346.52129	-346.564027	28.344
C          0.04300        1.51870       -0.03590
C          0.01220        0.06540        0.02640
C         -0.01300       -1.13750        0.08250
C         -0.03690       -2.58740        0.13760
O          0.11650       -3.14660        1.48660
C         -1.06670       -3.92950        1.30680
C         -2.26680       -3.05380        1.13790
C         -1.36570       -3.33560       -0.04580
H          0.95590        1.87900       -0.52250
H         -0.81220        1.91020       -0.59770
H          0.00690        1.95460        0.96850
H          0.74730       -3.01000       -0.50250
H         -1.06180       -4.94640        1.68050
H         -3.22240       -3.56790        1.10110
H         -2.28270       -2.07020        1.59790
H         -1.70420       -3.78220       -0.97010
