15
gdb 21075	3.45609	2.05021	1.30383	1.7996	64.51	-0.1942	0.0339	0.2281	894.7797	0.119687	-395.987428	-395.979111	-395.978167	-396.02014	29.304
C         -0.04590        1.41570       -0.03910
N          0.00240       -0.02680        0.01690
N         -0.08670       -0.75900       -1.11020
C         -0.03280       -2.02930       -0.70240
C          0.07360       -2.11080        0.69720
O          0.13780       -3.18960        1.53890
C          0.08800       -0.79880        1.13850
N          0.24400       -0.24800        2.42130
H          0.54620        1.82160        0.78410
H          0.37200        1.73170       -0.99530
H         -1.07290        1.79220        0.04030
H         -0.07280       -2.83160       -1.42570
H          0.39670       -3.96280        1.02970
H          0.60610       -0.95550        3.05140
H         -0.63160        0.08910        2.81180
