14
gdb 14503	3.78978	2.06147	1.57497	2.7288	62.45	-0.2612	0.0062	0.2674	791.7041	0.107927	-378.652497	-378.645751	-378.644807	-378.683159	25.939
O          0.00680        1.42390       -0.11090
C          0.01550        0.02720       -0.00740
C          0.97860       -0.56090       -0.95110
N          1.77330       -0.96960       -1.68530
C         -0.08470       -0.68860        1.39550
C         -1.50900       -0.09240        1.52830
C         -1.37910       -0.66350        0.09140
N         -0.73340       -1.87910        0.72480
H          0.91110        1.75180       -0.04620
H          0.69700       -0.79660        2.14790
H         -2.17410       -0.65910        2.17800
H         -1.59580        0.98620        1.63230
H         -2.12960       -0.74030       -0.69470
H         -0.08280       -2.32460        0.06930
