15
gdb 2412	5.02232	2.34859	1.96436	1.7702	57.27	-0.2388	0.0633	0.3021	690.9659	0.124389	-345.578846	-345.572337	-345.571393	-345.608816	24.99
C         -0.06860        1.57910        0.01480
C         -0.02890        0.06330       -0.00580
C          1.20450       -0.65150       -0.62600
O          2.02750       -0.22190        0.52510
C          0.75010       -0.68660        1.11470
C          0.86930       -1.93040        0.20880
O         -0.29410       -2.67400       -0.01530
H          0.90810        1.98720        0.28330
H         -0.35360        1.97400       -0.96640
H         -0.80800        1.93890        0.73850
H         -0.98810       -0.39050       -0.26460
H          1.64490       -0.55300       -1.61980
H          0.64590       -0.62790        2.19890
H          1.75070       -2.54250        0.42690
H         -0.09480       -3.36370       -0.65560
