16
gdb 1663	4.79153	1.77337	1.42129	4.1609	58.16	-0.2547	0.0223	0.277	875.3358	0.135383	-362.950092	-362.941543	-362.940598	-362.983502	29.409
C         -0.10070        1.43820        0.06860
N         -0.01790       -0.00900        0.14490
C          0.71480       -0.66030        1.07880
O          1.36820       -0.09700        1.94700
C          0.70770       -2.19870        1.00960
C          1.42170       -2.70980       -0.25070
O          1.33030       -2.69410        2.16440
H          0.51850        1.84350        0.86910
H          0.27080        1.80690       -0.89360
H         -1.13120        1.78400        0.20380
H         -0.54140       -0.55810       -0.51710
H         -0.34140       -2.53650        0.98770
H          2.44680       -2.32900       -0.28390
H          1.46180       -3.80150       -0.22100
H          0.90600       -2.40860       -1.16900
H          1.68820       -1.90370        2.60520
