11
gdb 21647	7.24744	1.37287	1.1553	3.614	61.19	-0.2388	-0.0562	0.1825	928.8292	0.075197	-389.798319	-389.791754	-389.79081	-389.828983	24.
N         -0.04810        1.34520        0.14580
C          0.00850       -0.02190        0.04910
N         -1.08240       -0.79140        0.01590
N         -0.54850       -2.03320       -0.01120
C          0.79900       -1.96310       -0.00140
N          1.19100       -0.69710        0.03600
C          1.62800       -3.11560       -0.02950
N          2.26730       -4.07960       -0.05470
H          0.77960        1.81580       -0.18640
H         -0.91240        1.75720       -0.17110
H         -1.14440       -2.84500       -0.03830
