16
gdb 7259	4.46936	1.16233	0.99624	1.047	64.32	-0.2542	-0.0257	0.2285	1167.5412	0.129173	-417.086893	-417.077757	-417.076813	-417.121483	31.182
C         -0.12470        1.58130        0.07420
C         -0.03140        0.04980       -0.02900
N          0.92590       -0.46580        0.93700
C         -1.42540       -0.55860        0.12000
O         -1.81580       -1.19710        1.05920
O         -2.19310       -0.26700       -0.98270
C         -3.49090       -0.71680       -1.01040
N         -4.18770       -0.43960       -2.01950
H          0.87050        2.00860       -0.06430
H         -0.80220        1.98710       -0.67980
H         -0.48960        1.87840        1.06380
H          0.31660       -0.20370       -1.03750
H          0.56100       -0.31700        1.87490
H          1.00240       -1.47450        0.83980
H         -3.76290       -1.28040       -0.11770
H         -5.12230       -0.83150       -1.91120
