18
gdb 4486	3.54441	1.66051	1.15389	0.9041	76.66	-0.1827	0.0561	0.2388	1056.6023	0.153985	-344.030871	-344.021793	-344.020849	-344.064632	32.488
C          0.05980        1.51250        0.07210
C          0.03680        0.02360       -0.03710
C          0.02300       -0.80150       -1.14050
C          0.00260       -2.15810       -0.69410
C         -0.01720       -3.39240       -1.54310
C          0.00460       -2.11770        0.68580
N         -0.00970       -3.11010        1.69760
N          0.02540       -0.79230        1.06620
H          0.94950        1.87800        0.60100
H          0.06530        1.95650       -0.92620
H         -0.81680        1.90510        0.60340
H          0.02720       -0.46560       -2.16790
H          0.86200       -3.45710       -2.19580
H         -0.03040       -4.29410       -0.92200
H         -0.89910       -3.43000       -2.19410
H          0.79720       -3.72270        1.63870
H         -0.83520       -3.69760        1.64020
H          0.03070       -0.50070        2.02880
