20
gdb 13106	3.96481	1.16329	0.95793	2.5388	76.05	-0.2364	-0.0171	0.2193	1268.0249	0.175892	-349.024534	-349.015622	-349.014678	-349.058693	32.167
C         -0.02500        1.51410       -0.29180
C         -0.05340        0.00510       -0.03740
C          0.81440       -0.41340        1.15700
C          0.76620       -1.91360        1.43740
C          1.51810       -2.50820        2.67310
C          0.25510       -3.33250        3.06600
C         -0.52730       -2.49970        2.03740
O         -1.69250       -2.28790        1.85410
H          0.99370        1.86550       -0.49250
H         -0.64580        1.78440       -1.15160
H         -0.40030        2.06840        0.57570
H         -1.08170       -0.32770        0.13990
H          0.29200       -0.52570       -0.93480
H          1.85750       -0.11580        0.98280
H          0.48740        0.12980        2.05430
H          1.02030       -2.47470        0.52760
H          2.42120       -3.08040        2.45710
H          1.75600       -1.73940        3.41270
H          0.31210       -4.38540        2.77040
H         -0.10100       -3.28210        4.09780
