20
gdb 12105	4.46301	1.23151	1.11176	1.6024	75.26	-0.2582	0.0877	0.346	1138.3032	0.176148	-348.973025	-348.964553	-348.963609	-349.006138	31.874
C         -0.20270        1.50300       -0.49680
C         -0.03980        0.05340       -0.07610
C          1.32490       -0.57300       -0.22930
C          0.79800       -0.24140        1.14790
C         -1.24970       -0.83700       -0.32770
C         -2.46810       -0.44010        0.47420
O         -3.26290        0.63810       -0.03520
C         -3.83460       -0.67060       -0.00940
H          0.70840        2.07370       -0.29070
H         -0.40900        1.57850       -1.57090
H         -1.03290        1.98430        0.02830
H          1.38530       -1.61850       -0.51410
H          2.12380        0.04130       -0.63120
H          1.24190        0.59410        1.67870
H          0.50440       -1.06520        1.79100
H         -1.51350       -0.82070       -1.39310
H         -0.99590       -1.87530       -0.07630
H         -2.31700       -0.39510        1.55450
H         -3.98600       -1.13280       -0.98450
H         -4.64780       -0.81360        0.70100
