19
gdb 13423	3.38424	1.20115	1.10865	1.6528	81.71	-0.2125	0.0435	0.256	1199.5028	0.162864	-327.876211	-327.866358	-327.865414	-327.912354	33.968
C          0.06590        1.55290       -0.21960
C          0.01810        0.10010       -0.13870
C         -0.01410       -1.10360       -0.07030
C         -0.03490       -2.54060       -0.03730
C         -0.42800       -3.27950        1.21860
C         -0.76210       -2.55380        2.50240
N         -1.29960       -3.30140        0.05050
C         -2.56390       -2.57810        0.06750
H          0.99180        1.94550        0.21540
H          0.01530        1.89780       -1.25840
H         -0.77130        2.00820        0.32100
H          0.69670       -3.00980       -0.69310
H          0.07060       -4.23610        1.37730
H         -1.08470       -1.52600        2.32840
H         -1.54960       -3.07990        3.05330
H          0.12350       -2.51880        3.14520
H         -2.52500       -1.58140        0.52560
H         -2.90780       -2.45870       -0.96460
H         -3.30370       -3.18240        0.60210
