17
gdb 1756	5.59681	1.58984	1.45274	1.9112	61.47	-0.2438	0.08	0.3238	897.6015	0.146714	-346.825174	-346.817207	-346.816262	-346.857314	28.867
C         -0.08210        1.33320        0.02080
O         -0.18110       -0.05890       -0.16650
C          0.76190       -0.56900       -1.09450
C          0.66090       -2.07060       -1.04340
O          0.90380       -2.58760        0.23500
C         -0.33130       -2.79090       -1.92460
C          1.16150       -2.90220       -2.17880
H          0.91300        1.62540        0.39090
H         -0.27630        1.88400       -0.91260
H         -0.83370        1.61910        0.76070
H          0.55830       -0.19180       -2.10950
H          1.77870       -0.25120       -0.80990
H          0.32220       -2.09500        0.82770
H         -0.82410       -3.65280       -1.49060
H         -0.93510       -2.21450       -2.61730
H          1.58240       -2.40540       -3.04660
H          1.64580       -3.83310       -1.90800
