13
gdb 9983	2.70522	1.50781	1.007	1.8805	59.82	-0.278	-0.0703	0.2077	1064.8736	0.092358	-398.625526	-398.617102	-398.616158	-398.659803	27.642
O         -0.45600        0.75130       -0.54750
C          0.33790        1.00830        0.31650
C          1.50660        1.97750        0.12120
C          1.43600        2.67220       -1.24720
C          2.63030        3.46390       -1.52880
N          3.58260        4.08690       -1.72890
C          1.55420        2.93860        1.31210
O          1.60590        2.55460        2.44940
H          0.28700        0.56720        1.33080
H          2.41720        1.36660        0.20030
H          1.29810        1.92120       -2.02980
H          0.55490        3.32190       -1.29440
H          1.51460        4.01890        1.05550
