15
gdb 4177	3.522	1.83315	1.3643	1.7424	64.67	-0.2505	-0.0027	0.2478	891.6231	0.117305	-399.710753	-399.703247	-399.702303	-399.742412	28.026
C         -0.04660        1.60100       -0.06250
C          0.02540        0.08090        0.00890
C          0.70690       -0.67270       -1.16360
O          2.06310       -0.23840       -1.21400
C          1.71980       -1.27800       -0.26870
C          1.09260       -0.58520        0.89930
N          1.33220       -0.69470        2.13660
O          0.44850        0.09340        2.89600
H          0.92290        2.01190       -0.35440
H         -0.79480        1.92040       -0.79550
H         -0.31960        2.01440        0.91150
H         -0.95280       -0.35440        0.24680
H          0.26530       -1.06360       -2.07240
H          2.27010       -2.20800       -0.32110
H          0.74400       -0.08010        3.79640
