20
gdb 17351	4.25652	1.26296	1.07856	2.4605	76.76	-0.2183	0.0716	0.29	1161.8144	0.176709	-345.123912	-345.11514	-345.114196	-345.157846	32.253
C         -1.45760       -0.62980        2.43410
C         -0.47310       -1.70600        2.04090
N          0.26810       -1.51800        0.78480
C          1.01160       -1.54960        2.06160
C          1.70300       -0.28930        2.47340
C          2.64400       -0.29340        3.63330
N          3.14130       -0.07300        2.28290
C          3.96210       -1.11130        1.67880
H         -1.10730        0.35970        2.13420
H         -2.42200       -0.80150        1.94390
H         -1.62570       -0.62860        3.51640
H         -0.82100       -2.71680        2.25550
H          0.37410       -2.39740        0.28700
H          1.56130       -2.46120        2.28650
H          1.12350        0.61060        2.28570
H          2.69760        0.55180        4.31520
H          2.84530       -1.26000        4.09740
H          3.75700       -2.13280        2.03710
H          3.82600       -1.09420        0.59290
H          5.01310       -0.89190        1.89330
