10
gdb 21880	3.43521	2.53815	1.45966	4.0927	52.13	-0.277	-0.0927	0.1843	744.7442	0.061119	-450.598444	-450.592449	-450.591505	-450.628822	21.834
O         -0.05370        1.27210        0.15590
C          0.02660       -0.04200        0.03340
N          1.15890       -0.64690       -0.05700
C          1.09090       -2.01560       -0.17980
N          0.04760       -2.76880       -0.21610
O         -1.18080       -2.09910       -0.11670
C         -1.28900       -0.74210        0.01050
O         -2.36130       -0.21890        0.09170
H          0.85310        1.61830        0.15930
H          2.03300       -2.54780       -0.25770
