17
gdb 3168	5.52406	2.28332	1.90741	0.156	70.45	-0.2177	0.03	0.2477	725.5603	0.15001	-272.584377	-272.578022	-272.577078	-272.614577	24.898
C         -0.22080        1.44060        0.00640
C          1.22330        1.01280       -0.02380
C          0.13570       -0.03440       -0.00040
C         -0.09560       -0.94270        1.21920
C         -0.87330       -2.17250        0.67100
C         -0.71480       -2.05060       -0.82780
C         -0.17530       -0.88400       -1.18010
H         -0.61230        1.85780        0.92880
H         -0.65010        1.86910       -0.89350
H          1.78280        1.15290       -0.94330
H          1.81340        1.14250        0.87830
H          0.86850       -1.26560        1.62660
H         -0.63140       -0.43360        2.02500
H         -0.48060       -3.11780        1.06290
H         -1.93540       -2.14570        0.95170
H         -1.04410       -2.82150       -1.51540
H          0.00790       -0.55120       -2.19660
