16
gdb 10032	3.11108	1.13183	0.86654	1.8663	72.41	-0.2407	-0.037	0.2038	1326.3243	0.125934	-383.704546	-383.694532	-383.693588	-383.742648	32.153
C         -0.06840        1.38570        0.32590
O         -0.29540        0.00830        0.08070
C          0.45010       -0.48960       -1.01960
C          1.92330       -0.66840       -0.59940
O          2.86270       -0.23000       -1.20470
C         -0.06640       -1.79270       -1.41380
C         -0.42030       -2.89760       -1.73610
C         -0.87310       -4.22250       -2.12990
H          0.98180        1.60210        0.56890
H         -0.35550        1.99960       -0.54050
H         -0.69160        1.65810        1.17980
H          0.42710        0.21390       -1.86630
H          2.02790       -1.24240        0.34740
H         -0.02720       -4.90580       -2.26120
H         -1.53340       -4.65210       -1.36900
H         -1.42670       -4.18910       -3.07430
