16
gdb 17954	2.6947	2.69469	1.50588	0.	80.6	-0.2046	-0.0464	0.1583	845.6884	0.132277	-309.473909	-309.467162	-309.466218	-309.504417	26.578
C          0.00990        1.40310        0.22290
C          1.15830        2.08910        0.21590
C          2.50330        1.58990       -0.10760
C          2.89020        0.93090       -1.20560
C          2.06590        0.54290       -2.36010
C          0.91760       -0.14340       -2.35290
C          0.19600       -0.67880       -1.18860
C         -0.19110       -0.01960       -0.09070
H         -0.88330        1.92370        0.56840
H          1.12650        3.12420        0.55610
H          3.27530        1.86200        0.61230
H          3.95230        0.70880       -1.30940
H          2.49580        0.79120       -3.33050
H          0.48620       -0.40970       -3.31780
H         -0.11260       -1.71990       -1.28350
H         -0.79000       -0.56630        0.63770
