16
gdb 4968	3.24316	2.27982	1.36124	2.864	72.78	-0.2437	-0.03	0.2137	890.218	0.132017	-342.854269	-342.846917	-342.845973	-342.885751	27.088
C          0.01200        1.52730       -0.02590
C          0.00820        0.02340       -0.00150
C         -0.01520       -0.72520       -1.17390
N         -0.01970       -2.06030       -1.20240
C          7.41800       -2.65210       -0.01040
N          0.02340       -2.05550        1.18170
C          0.02750       -0.71730        1.19350
C          0.05380       -0.04650        2.53950
H          0.90150        1.93780        0.46580
H         -0.00420        1.90020       -1.05360
H         -0.85810        1.94270        0.49530
H         -0.03110       -0.22090       -2.13950
H         -0.00310       -3.73970       -0.00560
H          0.93640        0.59500        2.64550
H         -0.82250        0.59750        2.67830
H          0.06720       -0.80260        3.32470
