20
gdb 12087	3.27864	1.47411	1.41683	1.88	74.42	-0.2519	0.0814	0.3333	1018.9263	0.175345	-348.974303	-348.965548	-348.964604	-349.007801	32.84
C         -0.05470        1.53390       -0.31590
C         -0.05410        0.05220       -0.00960
C          1.15980       -0.80510       -0.26410
C          0.71030       -0.54740        1.15560
C          1.50910        0.25810        2.15520
C          2.87430        0.78120        1.76480
C          0.78170        0.90790        3.26090
O          1.48150       -0.31710        3.47730
H          0.92360        1.99130       -0.14390
H         -0.31900        1.71280       -1.36390
H         -0.78180        2.06940        0.30490
H         -1.01010       -0.42810       -0.20400
H          1.03190       -1.80090       -0.67440
H          2.05700       -0.30080       -0.60780
H          0.21240       -1.37460        1.65230
H          2.82100        1.48730        0.93040
H          3.33480        1.28940        2.61530
H          3.52650       -0.04450        1.46280
H          1.20580        1.78430        3.75150
H         -0.30500        0.83870        3.30110
