18
gdb 17914	3.33248	2.22723	2.13602	1.4816	70.75	-0.2368	0.0111	0.248	768.9292	0.156234	-347.803327	-347.796815	-347.795871	-347.833498	26.72
C         -0.09380        1.54560        0.03190
C          0.04130        0.02720        0.01070
C          1.05640       -0.60520       -0.99650
C          2.38260       -0.04850       -0.39290
O          2.14530       -0.05040        1.01880
C          0.80400       -0.60360        1.19500
C          0.85790       -2.06180        0.77490
C          1.01020       -2.05610       -0.55500
H          0.83720        2.03240        0.33080
H         -0.38550        1.92890       -0.95210
H         -0.86890        1.84860        0.74390
H         -0.93740       -0.44220       -0.11610
H          0.91500       -0.39750       -2.05730
H          3.24530       -0.67960       -0.63500
H          2.58910        0.97500       -0.72890
H          0.48410       -0.37080        2.20980
H          0.88540       -2.90930        1.44730
H          1.18650       -2.90370       -1.20570
