22
gdb 14797	12.11851	0.54092	0.52808	1.8896	77.7	-0.2485	0.0872	0.3356	2144.1434	0.19757	-387.325059	-387.314396	-387.313452	-387.361906	35.699
C          0.03070        1.51910        0.10190
C          0.02880        0.00110        0.03770
O          0.69860       -0.49920        1.17560
C          0.75500       -1.90720        1.21640
C          1.49570       -2.32450        2.47970
C          1.60910       -3.83650        2.61520
O          2.30560       -4.12750        3.80670
C          2.46370       -5.50740        4.02480
H          1.05550        1.90070        0.11910
H         -0.48260        1.93910       -0.76830
H         -0.47780        1.86510        1.00630
H         -1.00530       -0.38360        0.00450
H          0.52830       -0.34800       -0.88260
H         -0.26460       -2.33230        1.20710
H          1.26920       -2.29660        0.31960
H          2.49900       -1.88600        2.47240
H          0.97500       -1.92120        3.35440
H          0.60680       -4.30070        2.63490
H          2.14090       -4.26530        1.74690
H          1.49360       -6.02390        4.10800
H          3.03640       -5.98820        3.21510
H          3.00970       -5.63110        4.96330
