20
gdb 10866	3.38724	1.5382	1.31326	1.9067	70.12	-0.2588	0.0625	0.3213	1003.3329	0.178439	-386.158969	-386.150837	-386.149893	-386.190968	31.862
O         -0.09540        1.44280       -0.00140
C          0.00180        0.02440        0.00430
C          0.74570       -0.49850        1.23920
C          0.74310       -2.03490        1.29220
C         -0.68420       -2.60530        1.23340
O         -1.39790       -2.37290        2.44600
C         -1.43790       -2.06060        0.00880
C         -1.42350       -0.52480       -0.04330
H          0.79520        1.80230        0.06520
H          0.53700       -0.32270       -0.89800
H          1.77680       -0.12220        1.24490
H          0.26300       -0.08150        2.13360
H          1.31550       -2.43120        0.44290
H          1.23390       -2.38890        2.20400
H         -0.62820       -3.69680        1.16220
H         -1.53830       -1.42550        2.53940
H         -0.96780       -2.46090       -0.89910
H         -2.46710       -2.43250        0.02700
H         -1.98100       -0.10150        0.80380
H         -1.92570       -0.16160       -0.94530
