16
gdb 20893	5.59032	1.31015	1.15318	4.1532	68.15	-0.2068	0.0087	0.2155	1051.4418	0.132117	-376.104778	-376.096919	-376.095974	-376.13749	28.454
C         -0.37150        1.46000        0.23860
C          0.25710        0.09910       -0.06540
N          0.79960       -0.54950        1.11820
C          0.13650       -1.17820        2.12860
C          1.13770       -1.54190        3.00580
N          1.07710       -2.27700        4.18860
N          2.32790       -1.12560        2.49650
N          2.11570       -0.52780        1.35020
H          0.36810        2.13260        0.68100
H         -0.74450        1.91260       -0.68490
H         -1.21060        1.36450        0.93390
H         -0.47390       -0.57570       -0.52230
H          1.09740        0.20390       -0.75450
H         -0.93070       -1.31740        2.12830
H          0.31300       -2.01150        4.79500
H          1.95660       -2.21740        4.68670
