16
gdb 9579	4.23819	1.29218	1.2067	2.5331	73.8	-0.2498	-0.0271	0.2227	1029.7853	0.127579	-346.575641	-346.567143	-346.566199	-346.608421	31.091
C         -0.09690        1.56120       -0.02340
C         -0.01820        0.05370        0.01960
C          1.29230       -0.66050       -0.24710
C          0.74990       -0.66870        1.15600
C          1.36480        0.09370        2.19990
C          1.87660        0.72400        3.08730
C         -1.23930       -0.67620       -0.41380
O         -2.25780       -0.14870       -0.78350
H          0.80770        2.01400        0.38690
H         -0.22840        1.90360       -1.05390
H         -0.95470        1.91680        0.55360
H          1.27150       -1.59560       -0.79740
H          2.14970       -0.02970       -0.44930
H          0.30590       -1.60590        1.48250
H          2.32950        1.27910        3.87110
H         -1.14680       -1.78830       -0.37310
