19
gdb 13792	4.01291	1.2037	1.09413	3.745	73.56	-0.2387	-0.016	0.2226	1180.4813	0.163748	-365.061584	-365.052402	-365.051458	-365.095965	32.632
C          0.62280        1.74710        0.18800
C         -0.13000        0.42180        0.02180
C          0.31480       -0.31370       -1.22140
N          1.54820       -1.08510       -1.13380
C          0.28840       -1.81480       -1.37120
C         -0.21200       -2.72420       -0.28250
C         -1.16450       -3.81380       -0.74400
O          0.09940       -2.59250        0.87910
H          1.69910        1.56780        0.27160
H          0.45700        2.41540       -0.66510
H          0.29610        2.27280        1.09000
H          0.03990       -0.22060        0.88820
H         -1.20970        0.60910       -0.04390
H          0.13220        0.22400       -2.15380
H          2.07800       -1.03560       -1.99990
H          0.09720       -2.17670       -2.38000
H         -0.65230       -4.49590       -1.43310
H         -1.53280       -4.37290        0.11660
H         -2.00720       -3.38060       -1.29530
