15
gdb 4924	6.77376	1.29443	1.09956	0.4242	64.59	-0.1788	0.0445	0.2233	1046.5031	0.120349	-396.00919	-396.001437	-396.000492	-396.041039	28.676
C          0.05770        1.38500        0.09450
N         -0.14440       -0.03540       -0.11050
C          0.57720       -0.65290       -1.11100
C          1.23890       -0.12820       -2.17490
O          1.74240       -1.21040       -2.90990
C          1.35270       -2.28590       -2.21220
N          1.77880       -3.50910       -2.66680
N          0.65920       -2.04370       -1.14030
H          1.11040        1.65600        0.27570
H         -0.28230        1.93620       -0.78980
H         -0.54340        1.71760        0.94360
H         -0.17460       -0.59280        0.73080
H          1.43620        0.84990       -2.56890
H          1.93330       -3.55450       -3.66320
H          1.22980       -4.27580       -2.30790
