14
gdb 17992	4.1538	1.79939	1.52998	5.8497	61.44	-0.2557	0.0096	0.2653	823.8302	0.108593	-378.672451	-378.665855	-378.664911	-378.703563	24.446
N          0.07550       -1.13410        0.13310
C          0.04900        0.01960        0.07880
C          0.00820        1.47700       -0.01830
N         -0.33040        2.19210        1.24450
C          0.84240        3.09110        1.10430
C          2.06540        2.53960        1.85790
O          2.40680        1.68810        0.72550
C          1.36970        2.24360       -0.07790
H         -0.62650        1.75470       -0.86990
H         -1.22960        2.65640        1.21490
H          0.65080        4.16380        1.09400
H          2.86420        3.26510        2.05180
H          1.83770        1.96430        2.75930
H          1.71070        2.58250       -1.05770
