12
gdb 21366	5.54745	2.39148	1.67108	4.256	60.2	-0.2246	0.0124	0.237	694.1774	0.08858	-373.732806	-373.727447	-373.726503	-373.762037	20.94
N         -0.02510        1.34290        0.01000
C          1.29880        1.78190       -0.00050
C          2.12320        0.69740       -0.01460
N          1.28730       -0.40720       -0.01250
N          1.36220       -1.76690       -0.02080
C          0.06580       -2.08330       -0.00990
N         -0.83750       -1.05690        0.00470
C         -0.01480       -0.02100        0.00240
H         -0.84500        1.92180        0.02130
H          1.54110        2.83030        0.00290
H          3.19570        0.62550       -0.02550
H         -0.24460       -3.11800       -0.01260
