17
gdb 5257	7.08343	1.12807	0.98513	2.3019	71.38	-0.1876	0.0527	0.2402	1179.0804	0.14294	-363.889603	-363.881674	-363.88073	-363.922139	29.319
C         -0.08010        1.52790        0.01160
C         -0.01600        0.01130        0.00410
O         -1.34300       -0.48890        0.01150
C         -1.46380       -1.84180        0.00630
C         -0.47630       -2.80720       -0.00550
N         -1.11850       -4.03060       -0.00620
C         -2.47280       -3.85010        0.00480
C         -2.72600       -2.49820        0.01270
H          0.92950        1.94950        0.00600
H         -0.61470        1.89450       -0.86920
H         -0.60150        1.88640        0.90350
H          0.51370       -0.35580       -0.88870
H          0.52660       -0.36400        0.88560
H          0.59710       -2.73830       -0.01330
H         -0.65260       -4.91940       -0.01360
H         -3.14730       -4.69110        0.00610
H         -3.69080       -2.01710        0.02210
