14
gdb 10902	3.33475	2.02085	1.44563	2.5216	58.27	-0.2381	-0.0346	0.2035	852.0818	0.104301	-419.643987	-419.636053	-419.635109	-419.676334	28.06
C         -0.05110        1.56260        0.09660
C          0.15820        0.09130       -0.01980
O         -0.77660       -0.81700        0.62010
C          0.60390       -0.96120        0.93840
C          1.22770       -1.82980       -0.15340
O          0.80480       -3.16060       -0.20320
C          0.67720       -0.76910       -1.17170
O          0.73140       -0.66390       -2.36090
H          0.85640        2.10390       -0.18730
H         -0.85840        1.88600       -0.56790
H         -0.31930        1.83070        1.12170
H          0.90480       -0.84200        1.97210
H          2.32890       -1.73520       -0.14550
H          0.91450       -3.47200       -1.10850
