24
gdb 6473	3.56281	1.24437	1.14051	0.0582	85.35	-0.2738	0.0805	0.3543	1223.7619	0.222323	-314.277944	-314.268337	-314.267393	-314.311713	36.734
C          0.11560        1.51810       -0.17180
C         -0.01880        0.01320        0.08960
C         -1.45630       -0.51910        0.08500
C         -2.30360        0.09790        1.20210
C         -2.19540       -0.49420       -1.29370
C         -2.65890       -1.95900       -1.05790
C         -2.60560       -2.93670       -2.22210
C         -1.58770       -2.07630        0.06220
H          1.16860        1.81050       -0.23120
H         -0.35970        1.79980       -1.11810
H         -0.34560        2.11450        0.62130
H          0.55300       -0.53090       -0.67350
H          0.45020       -0.23450        1.05250
H         -2.41210        1.18040        1.07840
H         -3.31150       -0.33010        1.21840
H         -1.85090       -0.08520        2.18400
H         -2.97050        0.26500       -1.43470
H         -1.49010       -0.42650       -2.12970
H         -3.66320       -1.96900       -0.62100
H         -1.60970       -2.94730       -2.68040
H         -2.83210       -3.95850       -1.89640
H         -3.32740       -2.66900       -3.00240
H         -0.67280       -2.55440       -0.30490
H         -1.88150       -2.56510        0.99610
