17
gdb 13975	5.7364	1.09559	1.01804	1.5764	80.07	-0.2224	0.0278	0.2502	1205.5657	0.141741	-326.658603	-326.650435	-326.649491	-326.692786	29.261
C         -0.05820        1.46480        0.03710
C         -0.01460        0.01130        0.00100
C          0.01100       -1.19390       -0.03190
C          0.08550       -2.61620       -0.05170
C         -0.41370       -3.45330       -1.17120
N         -1.13580       -3.55690        0.10220
C         -0.27720       -4.43930        0.96950
C          0.92870       -3.47060        0.90390
H          0.68180        1.86550        0.73870
H          0.14820        1.89850       -0.94780
H         -1.04340        1.82180        0.35750
H         -0.98450       -2.94770       -1.94330
H          0.18060       -4.29860       -1.51790
H         -0.71890       -4.52580        1.96350
H         -0.13440       -5.44270        0.55390
H          1.87610       -3.84300        0.50380
H          1.11690       -2.96890        1.85380
