15
gdb 11171	5.63969	1.28632	1.09494	3.3382	67.51	-0.2434	0.0276	0.271	1028.5656	0.119703	-362.676625	-362.669203	-362.668259	-362.708422	27.758
O          0.04240       -0.04310        0.21720
C         -0.00990        1.16460        0.17200
C         -1.26520        2.03850        0.07570
C         -0.76210        3.46500        0.40010
C          0.73320        3.41640       -0.03150
N          1.06300        2.02050        0.18030
C         -1.51360        4.54500       -0.21760
C         -2.13150        5.43290       -0.74140
H         -1.64920        1.97780       -0.94820
H         -2.04670        1.68250        0.74740
H         -0.78370        3.59180        1.48920
H          0.84080        3.71830       -1.08210
H          1.35250        4.07930        0.57930
H          1.99730        1.65410        0.08790
H         -2.68250        6.21780       -1.19760
