13
gdb 3672	7.56568	2.00939	1.60358	2.4854	55.89	-0.2148	0.0292	0.244	736.1172	0.102979	-340.66616	-340.659386	-340.658442	-340.69849	24.122
C         -0.07920        1.50230        0.09870
C          0.00180        0.02090       -0.07470
C         -0.07650       -0.77110       -1.20490
C          0.07270       -2.08910       -0.71970
O          0.06140       -3.20810       -1.47470
N          0.23110       -2.13760        0.59330
N          0.18390       -0.82890        0.96580
H          0.84470        1.91370        0.52130
H         -0.24660        1.98320       -0.86690
H         -0.90260        1.78960        0.76260
H         -0.21920       -0.45110       -2.22320
H          0.18430       -3.95310       -0.87300
H          0.28240       -0.59910        1.93900
