17
gdb 20164	3.3681	2.99123	2.07429	1.609	71.17	-0.2078	0.0124	0.2203	708.2074	0.146075	-326.693538	-326.68795	-326.687006	-326.722841	23.649
C         -0.05680        1.56650        0.00090
C          1.48910        1.52330        0.01790
C          2.21100        1.39990        1.38010
C          2.02200       -0.15240        1.24070
C          0.88310       -0.73830        2.02590
C         -0.25330       -0.65480        1.33470
C         -0.01350       -0.00290        0.00270
N          1.48780        0.01850       -0.16170
H         -0.55000        2.03460        0.85610
H         -0.46350        1.99270       -0.91950
H          1.99740        2.11760       -0.74610
H          3.25530        1.71950        1.34220
H          1.72860        1.86720        2.24190
H          2.94650       -0.73570        1.29840
H          0.99470       -1.13200        3.02960
H         -1.23380       -0.96830        1.67420
H         -0.54680       -0.47910       -0.82620
