18
gdb 17335	3.5595	2.15525	1.78944	2.3723	70.73	-0.2193	0.0729	0.2923	814.0477	0.155889	-343.939341	-343.932576	-343.931632	-343.969739	27.504
C         -0.03650        1.51620        0.01190
C          0.10240        0.01680       -0.02520
N         -0.56710       -0.82400        0.99590
C          0.91060       -0.78060        0.93730
C          1.53210       -1.94820        0.18340
N          1.11740       -1.85360       -1.23810
C         -0.31330       -2.05100       -1.51460
C          0.22970       -0.67640       -1.37050
H          0.73980        1.99820       -0.59210
H         -1.00860        1.83420       -0.38200
H          0.05180        1.89470        1.03550
H         -0.89180       -0.22940        1.75630
H          1.45530       -0.31640        1.75540
H          2.62460       -1.86920        0.21860
H          1.25020       -2.91910        0.60330
H         -0.52240       -2.45010       -2.50420
H         -0.95690       -2.40550       -0.71640
H          0.38740       -0.03830       -2.23650
