17
gdb 9094	4.65742	0.955	0.82445	1.12	67.93	-0.263	-0.0325	0.2305	1344.3075	0.139434	-401.005747	-400.996353	-400.995408	-401.041345	31.25
C          0.17100        1.66760       -0.03140
C         -0.09070        0.15040       -0.00980
C          0.52810       -0.57970       -1.19570
O         -0.08140       -0.06310       -2.38070
C          0.37670       -0.55380       -3.54860
N         -0.11770       -0.15200       -4.63780
C          0.38500       -0.44450        1.29850
O          1.15890       -1.36340        1.39660
H          1.24480        1.87990        0.00900
H         -0.22970        2.09950       -0.95010
H         -0.30520        2.16180        0.82090
H         -1.18070       -0.00060       -0.04030
H          1.61310       -0.41540       -1.22000
H          0.35370       -1.65840       -1.11370
H          1.17940       -1.29490       -3.42910
H          0.33870       -0.61860       -5.41880
H         -0.03770        0.04890        2.20360
