15
gdb 15873	2.62782	2.12167	1.38224	2.5346	60.68	-0.2755	0.0127	0.2882	883.6891	0.118638	-399.796252	-399.78847	-399.787525	-399.828357	28.829
O          0.59110        0.79650       -0.85150
C          0.09940       -0.21470       -0.03210
C          0.08840       -0.05190        1.51020
C         -1.25680       -0.82300        1.54750
O         -2.25040       -0.47780        2.45810
C         -1.45460       -0.50100        0.01260
C         -2.21330        0.72010       -0.16850
N         -2.76530        1.73450       -0.25280
H          0.11380        1.61320       -0.66020
H          0.61540       -1.12940       -0.33300
H          0.93030       -0.44550        2.08140
H         -0.06670        0.99900        1.78170
H         -1.09760       -1.89760        1.66210
H         -2.46670        0.45590        2.34530
H         -1.84400       -1.29460       -0.62730
