16
gdb 11277	5.40736	1.27956	1.10122	1.1536	77.51	-0.2307	-0.0255	0.2051	1072.2614	0.129203	-346.582582	-346.574628	-346.573684	-346.615016	29.287
C          0.09180        1.55290       -0.08310
C         -0.04230        0.03550        0.05290
O          0.57510       -0.60960       -1.06770
C          1.49210       -1.60320       -0.63750
C          1.53230       -1.48010        0.87380
C          0.64790       -0.55160        1.25180
C          2.38430       -2.26990        1.67680
C          3.13150       -2.96830        2.31380
H          1.14490        1.84740       -0.06890
H         -0.35050        1.88180       -1.02750
H         -0.42800        2.06050        0.73620
H         -1.11640       -0.22080        0.06440
H          1.15640       -2.60510       -0.94780
H          2.47710       -1.43030       -1.09340
H          0.43570       -0.24910        2.26870
H          3.78340       -3.57680        2.89030
