18
gdb 20159	3.59855	2.68204	2.01342	0.7104	76.87	-0.2145	0.0035	0.218	736.7762	0.156726	-310.619263	-310.61346	-310.612516	-310.648621	25.033
C         -0.03760        1.54220       -0.05430
C          1.52890        1.61050        0.08800
C          2.13360        1.76410        1.53690
C          1.50520        0.39930        1.76010
C          0.38680        0.02960        2.39050
C         -0.57790       -0.62150        1.39660
C         -0.04400       -0.03850        0.06320
C          1.48070        0.06380        0.27220
H         -0.61810        2.08330        0.69740
H         -0.35940        1.87920       -1.04240
H          2.06430        2.10920       -0.72320
H          3.22740        1.77550        1.46810
H          1.79910        2.58040        2.18300
H          0.06490        0.39060        3.36160
H         -0.56950       -1.72120        1.39350
H         -1.61060       -0.31720        1.60650
H         -0.41730       -0.54250       -0.83250
H          2.21290       -0.63140       -0.14120
