20
gdb 6853	3.27474	1.7863	1.57288	1.1506	76.64	-0.2431	0.0232	0.2663	934.084	0.177305	-349.017011	-349.008952	-349.008008	-349.048721	31.557
C         -0.03400        1.53850       -0.01050
C         -0.01860        0.00040        0.00940
C         -1.46210       -0.54230        0.02210
C          0.73090       -0.51870       -1.23260
O          1.00420       -1.90630       -1.14150
C          1.92260       -2.20570       -0.10840
C          1.62170       -1.47980        1.17340
C          0.73000       -0.49410        1.23050
H          0.98080        1.94900        0.01320
H         -0.53210        1.91320       -0.91190
H         -0.57620        1.93350        0.85550
H         -2.04530       -0.11570       -0.80250
H         -1.45820       -1.63010       -0.08310
H         -1.97080       -0.29010        0.95860
H          0.12710       -0.38580       -2.13610
H          1.66870        0.04740       -1.36200
H          1.86970       -3.29070        0.04220
H          2.95650       -1.98140       -0.43320
H          2.17150       -1.79820        2.05560
H          0.51110       -0.00110        2.17590
