15
gdb 18786	3.96063	2.31442	1.9225	1.6036	63.92	-0.2288	-0.0252	0.2036	720.0683	0.120809	-362.610542	-362.60474	-362.603796	-362.640324	23.235
O          0.01560        0.02450        0.06340
C         -0.01110        1.22120        0.03410
C         -1.14940        2.24980       -0.05900
C         -1.26170        3.06900        1.25800
N         -0.05600        3.89710        0.93210
C          1.19420        3.12290        1.22030
C          1.07770        2.29860       -0.09310
C         -0.06450        3.30210       -0.47230
H         -2.05280        1.98000       -0.60560
H         -2.15160        3.70490        1.25370
H         -1.21840        2.52910        2.20950
H          2.05490        3.79720        1.18920
H          1.20380        2.58230        2.17240
H          1.97480        2.06840       -0.66740
H         -0.09210        3.94740       -1.34710
