20
gdb 17071	5.30479	1.14283	1.02301	1.6115	75.19	-0.2387	0.0913	0.33	1200.0455	0.177522	-348.972268	-348.964098	-348.963154	-349.005818	29.977
C          0.00460        1.52190       -0.32430
C         -0.12180        0.01790       -0.20190
C         -0.15390       -0.63220        1.15770
C         -1.39890       -0.60440        0.30650
C          1.43160        2.02320       -0.16800
C          1.66700        3.55010       -0.12400
C          2.32180        3.26400        1.24110
O          1.94060        1.87490        1.18360
H         -0.36710        1.85300       -1.30510
H         -0.61990        2.01200        0.43380
H          0.39750       -0.53610       -0.98070
H          0.35920       -1.57850        1.28850
H         -0.10490        0.02120        2.02070
H         -2.20350        0.06200        0.60130
H         -1.73700       -1.53030       -0.14580
H          2.09150        1.50350       -0.87910
H          2.31280        3.96690       -0.89820
H          0.74590        4.13520       -0.07000
H          3.41270        3.38720        1.26460
H          1.89210        3.77310        2.11180
