14
gdb 21303	3.41872	1.93982	1.25707	3.574	60.03	-0.2623	-0.0288	0.2335	924.0787	0.106345	-415.81933	-415.811701	-415.810757	-415.851552	26.581
C          0.03310        1.43150        0.01030
O          0.02530       -0.00110        0.01770
C          0.59560       -0.58460       -1.03410
N          1.14560        0.03170       -2.04380
O          1.59150       -0.97980       -2.86760
N          1.30360       -2.21150       -2.34390
C          0.68990       -2.00330       -1.21380
C          0.20040       -3.08820       -0.31800
H          1.05980        1.80910       -0.01230
H         -0.50520        1.81330       -0.86250
H         -0.46560        1.73700        0.92980
H          0.66460       -3.01390        0.67060
H         -0.88220       -3.01350       -0.17420
H          0.43440       -4.06350       -0.74710
