18
gdb 16027	3.86384	1.80993	1.47314	1.5372	67.44	-0.2471	0.0839	0.331	889.0537	0.15555	-384.929509	-384.922569	-384.921624	-384.960458	27.386
C          0.05690        1.49170        0.00950
O          1.20720        0.63900       -0.00600
C         -0.10080        0.03470        0.00320
C         -0.44000       -0.73260        1.26720
C          0.12870       -2.15460        1.16430
O         -0.32200       -2.80910       -0.00990
C          0.10620       -2.14200       -1.18550
C         -0.46420       -0.71900       -1.26220
H         -0.09920        2.04860        0.93330
H         -0.11670        2.05850       -0.90500
H         -0.02990       -0.21860        2.14210
H         -1.52960       -0.78910        1.37970
H          1.23020       -2.11010        1.17570
H         -0.19690       -2.77180        2.00610
H          1.20730       -2.09730       -1.21750
H         -0.23540       -2.75020       -2.02750
H         -1.55570       -0.77440       -1.35440
H         -0.07080       -0.19560       -2.13920
