14
gdb 9195	5.65541	0.97016	0.93971	3.7511	59.59	-0.2821	0.0122	0.2943	1222.794	0.106559	-415.906963	-415.898242	-415.897298	-415.941674	28.75
C         -0.22190        1.26130       -0.01950
O          0.33600       -0.05670        0.04870
C          0.72940       -0.56500       -1.13700
O          0.63750       -0.00320       -2.20410
N          1.27680       -1.80780       -0.94540
C          1.61630       -2.63750       -2.07760
C          0.68110       -3.75750       -2.27440
N         -0.04370       -4.64770       -2.40240
H          0.51230        1.97220       -0.40640
H         -1.10290        1.27480       -0.66550
H         -0.49570        1.51630        1.00420
H          1.18890       -2.22300       -0.03190
H          1.59860       -1.99090       -2.95970
H          2.62870       -3.04500       -1.97770
