15
gdb 16119	4.45893	1.65637	1.45627	3.7852	65.49	-0.2551	0.0284	0.2834	864.0104	0.120769	-362.665786	-362.659123	-362.658179	-362.69655	25.473
N         -0.08760       -1.13940       -0.39890
C         -0.04630       -0.00310       -0.18180
C          0.00410        1.40170        0.08460
C          0.36520        2.37590       -1.04190
C          1.31300        2.18610        0.10250
O          1.31030        3.08520        1.16430
C         -0.04170        3.27670        1.58890
C         -0.80230        1.97500        1.24840
H          0.64390        1.92930       -1.98920
H         -0.20970        3.29170       -1.12310
H          2.27690        1.71570       -0.04630
H         -0.02580        3.50160        2.65740
H         -0.48350        4.13550        1.06710
H         -1.84840        2.16760        0.99740
H         -0.77530        1.26850        2.08230
