13
gdb 4419	3.78204	2.01841	1.31605	3.0597	66.92	-0.1999	-0.0412	0.1587	852.7141	0.098025	-394.814053	-394.80759	-394.806646	-394.844522	25.079
O         -0.14260        1.32180        0.01090
C          0.04420       -0.01190        0.00270
C          1.23960       -0.67340       -0.00770
N          1.27200       -2.04200       -0.01530
C          0.16360       -2.71130       -0.01270
C         -1.17210       -2.11270       -0.00190
N         -2.32640       -2.67070        0.00160
N         -1.11510       -0.71240        0.00540
H          0.71610        1.75950        0.00860
H          2.18310       -0.14120       -0.01010
H          0.21630       -3.79810       -0.01890
H         -2.22390       -3.68390       -0.00440
H         -1.99680       -0.21730        0.01310
