18
gdb 15387	2.86856	1.52635	1.10729	1.1091	75.13	-0.23	0.049	0.279	1114.3009	0.151312	-347.749454	-347.740572	-347.739628	-347.783177	32.408
C          0.10180        1.47670       -0.26500
C          0.50610        0.01640       -0.17590
O          0.11940       -0.62500       -1.38840
C          0.44210       -1.96660       -1.42790
C          0.60730       -2.57530       -2.77400
C          1.84030       -2.40110       -1.88360
C          2.83130       -1.42440       -2.21810
C          3.68010       -0.61420       -2.48580
H          0.60920        1.96160       -1.10350
H         -0.97760        1.57010       -0.41520
H          0.37160        2.00200        0.65610
H          1.59050       -0.08370       -0.03330
H          0.00890       -0.47490        0.67640
H         -0.00350       -2.57040       -0.63470
H          0.24550       -3.58190       -2.94830
H          0.52950       -1.89800       -3.61580
H          2.22440       -3.30610       -1.42120
H          4.42480        0.10170       -2.72990
