19
gdb 6366	4.62367	0.94604	0.93373	4.3663	69.6	-0.2531	0.0242	0.2773	1336.8833	0.163548	-402.239413	-402.229622	-402.228677	-402.276137	34.276
C         -0.03800        1.35720       -0.23130
C          0.04260       -0.12530        0.14710
C          0.77070       -0.34380        1.47830
N         -1.29610       -0.71560        0.18580
C         -1.67900       -1.77470       -0.56370
O         -0.95400       -2.35360       -1.36200
C         -3.12550       -2.25290       -0.37890
O         -3.37210       -3.34510       -1.21180
H          0.96420        1.79120       -0.29760
H         -0.53530        1.48800       -1.19610
H         -0.59610        1.92660        0.52200
H          0.56440       -0.67310       -0.64150
H          0.83970       -1.40910        1.71400
H          1.78460        0.06570        1.43390
H          0.24570        0.15610        2.30120
H         -1.96860       -0.31590        0.82350
H         -3.28150       -2.51640        0.68010
H         -3.80770       -1.41690       -0.60450
H         -2.52970       -3.48140       -1.68010
