16
gdb 19852	4.64803	1.99623	1.67345	1.4937	70.16	-0.2361	0.0034	0.2395	792.9232	0.132019	-346.543223	-346.537168	-346.536224	-346.57317	24.527
C         -0.03400        1.46940        0.03060
C          1.46320        1.93630        0.09850
C          2.17570        0.80120       -0.64850
C          3.38470       -0.08590       -0.22790
O          3.12800       -0.67360        1.04530
C          2.50230       -1.27610       -0.11560
C          1.29540       -0.39600       -0.34350
C          0.06760       -0.05900        0.03090
H         -0.62090        1.83530        0.88010
H         -0.52930        1.84950       -0.87460
H          1.61770        2.93340       -0.32280
H          1.78330        1.94620        1.14540
H          2.24220        0.98330       -1.73030
H          4.42010       -0.01540       -0.54170
H          2.69010       -2.32880       -0.28370
H         -0.73340       -0.70670        0.36690
