24
gdb 15904	2.51454	1.61996	1.25849	0.1033	84.59	-0.2724	0.0749	0.3473	1139.7279	0.22287	-314.272502	-314.262871	-314.261927	-314.306308	36.343
C          0.37410        1.84150        0.11500
C          0.35760        0.32170       -0.08970
C          0.73440       -0.45540        1.16880
C         -0.27340       -0.59710        2.36500
C         -1.75840       -0.39650        2.06840
C          0.15850       -2.08840        2.49990
C          0.88420       -2.01470        1.12360
C          0.18520       -2.75590       -0.01450
H          1.36990        2.18650        0.41560
H          0.10150        2.37110       -0.80340
H         -0.32800        2.15030        0.89650
H         -0.62970        0.01190       -0.45160
H          1.06480        0.06160       -0.88880
H          1.66960       -0.03190        1.55570
H         -0.00680        0.02090        3.22830
H         -2.09900       -1.00560        1.22480
H         -2.35770       -0.68600        2.93920
H         -1.99360        0.64820        1.83840
H          0.83930       -2.26640        3.33660
H         -0.65990       -2.81300        2.56670
H          1.92850       -2.34270        1.15630
H         -0.87550       -2.49630       -0.09070
H          0.64940       -2.53940       -0.98280
H          0.24470       -3.83840        0.14590
