20
gdb 8138	3.95174	1.61255	1.35066	0.2425	81.41	-0.2145	0.0294	0.2439	1008.7128	0.177271	-311.883322	-311.875361	-311.874417	-311.914963	31.324
C          0.04540        1.49890        0.07230
C         -0.01030        0.00540        0.00640
C         -0.07840       -0.76020       -1.08820
C         -0.04860       -2.22460       -0.78170
C         -0.88270       -3.18320       -1.59820
C          1.24690       -2.68170       -0.13420
C          0.07850       -2.28070        0.73480
C          0.02760       -0.85000        1.26360
H          0.97990        1.84570        0.53250
H         -0.02710        1.94940       -0.92150
H         -0.76960        1.90060        0.68880
H         -0.12220       -0.38300       -2.10560
H         -0.54540       -3.21620       -2.64120
H         -0.81650       -4.20080       -1.20010
H         -1.93920       -2.89170       -1.60070
H          1.48010       -3.74190       -0.17570
H          2.11130       -2.02730       -0.19260
H         -0.41820       -3.06390        1.29680
H          0.88970       -0.60300        1.89860
H         -0.86440       -0.67680        1.88260
