18
gdb 16382	2.91362	2.20702	1.56013	1.9431	73.7	-0.2147	0.0178	0.2324	890.8957	0.153586	-347.769773	-347.762186	-347.761242	-347.801334	28.951
C         -0.03130        1.47910        0.09970
C          0.00490       -0.00570        0.00510
C         -0.00750       -0.85540       -1.03120
C         -0.06280       -0.65660       -2.50510
C          0.06320       -2.21530       -0.29880
C         -1.00900       -2.03670        0.81540
C          0.08040       -0.99130        1.19410
O          1.08230       -1.95580        0.72510
H          0.86030        1.86940        0.60730
H         -0.08510        1.94630       -0.88810
H         -0.89680        1.82580        0.67940
H         -0.10660        0.40410       -2.76900
H          0.81610       -1.08960       -3.00030
H         -0.94130       -1.14580       -2.94590
H          0.21100       -3.13410       -0.86690
H         -2.00510       -1.68440        0.53790
H         -1.04610       -2.88130        1.50820
H          0.24630       -0.61610        2.20430
