15
gdb 4353	3.9728	1.92288	1.31674	0.6644	68.76	-0.2596	-0.0411	0.2185	913.8263	0.119397	-358.915907	-358.908101	-358.907157	-358.950535	26.507
C         -0.06790        1.48560        0.01340
C         -0.00070       -0.01290        0.01110
N          0.10160       -0.62530       -1.17680
C          0.16420       -1.95250       -1.10780
N          0.13350       -2.68920       -0.00040
C          0.02980       -1.98150        1.13320
C         -0.00160       -2.74400        2.42460
N         -0.04110       -0.64650        1.18890
H          0.88450        1.89920       -0.33580
H         -0.83660        1.82850       -0.68460
H         -0.27500        1.85760        1.01660
H          0.24690       -2.48910       -2.05150
H          0.96990       -3.22020        2.59650
H         -0.22630       -2.07740        3.25700
H         -0.74220       -3.54660        2.36970
