19
gdb 13026	2.60814	2.4532	1.61662	2.8462	71.26	-0.2341	0.0726	0.3067	878.4871	0.165957	-365.051825	-365.044003	-365.043059	-365.08345	30.163
C          0.12670        1.55170       -0.06260
C          0.04560        0.03560        0.02180
O          0.71210       -0.51440       -1.11700
C          1.30150       -1.76480       -0.78440
C          1.52960       -1.71990        0.71020
N          2.19930       -0.46920        1.13460
C          0.72680       -0.59350        1.23620
C          0.03690       -0.57680        2.57340
H          1.16940        1.86830        0.01410
H         -0.27990        1.89990       -1.01580
H         -0.45050        2.01540        0.74440
H         -1.01180       -0.28500        0.02840
H          0.63470       -2.60740       -1.03290
H          2.22200       -1.86310       -1.36950
H          1.68460       -2.63660        1.27020
H          2.60270       -0.61060        2.05890
H         -0.03570        0.44260        2.96970
H         -0.98060       -0.97570        2.49800
H          0.58160       -1.18170        3.30580
