16
gdb 1523	7.95294	1.3469	1.17739	1.2128	59.05	-0.2554	0.0617	0.3171	1018.8532	0.135558	-362.923114	-362.914882	-362.913937	-362.95593	28.154
C          0.05960        1.50340       -0.13540
C          0.00200       -0.00530        0.01070
O          0.64820       -0.57130       -1.14090
C          0.69780       -1.90480       -1.19270
N          0.21090       -2.65580       -0.29250
O          1.33860       -2.22160       -2.34080
C          1.51100       -3.60220       -2.61530
H          1.09500        1.85180       -0.18560
H         -0.45640        1.82800       -1.04330
H         -0.42320        1.97650        0.72490
H          0.51500       -0.35150        0.91370
H         -1.02710       -0.37530        0.06020
H          0.33840       -3.64150       -0.49460
H          2.11200       -4.09290       -1.84020
H          0.54650       -4.11640       -2.70560
H          2.03860       -3.65520       -3.56820
