15
gdb 13573	3.85202	1.54376	1.25017	3.4754	70.06	-0.256	-0.039	0.217	975.8224	0.116767	-362.624385	-362.616126	-362.615181	-362.65722	29.521
C          0.31330        1.38590        0.20850
C          0.01370       -0.06200       -0.09610
C          0.78400       -0.81030       -1.15390
N          0.95890       -1.10230        0.25310
C          2.10430       -0.94960        1.01340
O          2.13140       -0.36990        2.07940
C          3.26730       -1.62590        0.45850
C          4.25290       -2.15670        0.01890
H          1.34310        1.64420       -0.05340
H         -0.36120        2.03230       -0.36190
H          0.18000        1.59370        1.27320
H         -1.02340       -0.35820        0.05380
H          0.30020       -1.58410       -1.74390
H          1.58590       -0.27780       -1.66050
H          5.12920       -2.62590       -0.35740
