19
gdb 11677	3.38907	1.76022	1.45099	1.5555	72.15	-0.2392	0.0818	0.3209	952.5836	0.165238	-364.978327	-364.970242	-364.969298	-365.010851	30.206
C         -0.42760        1.12370        0.23540
O         -0.15390       -0.25800        0.09000
C          0.59040       -0.57310       -1.02680
C          0.26850       -0.40560       -2.53750
N          1.62270       -1.12800       -2.54420
C          2.02250       -0.13550       -1.44150
C          1.01580       -2.00220       -1.41350
C          1.93860       -2.86730       -0.57950
H          0.49590        1.71360        0.32120
H         -1.01300        1.51250       -0.60970
H         -1.00870        1.24100        1.15230
H         -0.54630       -0.99860       -2.96070
H          0.31590        0.59360       -2.97670
H          2.16260        0.88080       -1.81760
H          2.87470       -0.44840       -0.83940
H          0.20230       -2.61730       -1.81430
H          2.73710       -2.31520       -0.08020
H          1.35440       -3.37610        0.19410
H          2.39900       -3.63440       -1.21060
