19
gdb 13991	5.3541	1.08677	1.0151	1.5381	71.49	-0.245	0.0804	0.3254	1191.9652	0.166124	-365.016874	-365.008708	-365.007764	-365.049887	30.385
O          0.12340        1.45590        0.12980
C          0.04780        0.03990        0.17750
C         -1.33380       -0.49410       -0.22010
C         -1.39200       -1.99420       -0.21710
C         -0.76020       -2.93740       -1.26210
C         -1.95230       -3.92840       -1.04810
C         -2.52890       -2.95910       -0.00740
N         -1.56580       -2.69200        1.05780
H         -0.48840        1.80240        0.78720
H          0.80680       -0.31800       -0.52710
H          0.31670       -0.34730        1.17200
H         -2.08310       -0.11350        0.48540
H         -1.58960       -0.10560       -1.21330
H         -0.74980       -2.51690       -2.27100
H          0.24580       -3.30220       -1.02810
H         -2.57350       -4.02730       -1.94140
H         -1.71210       -4.93130       -0.67840
H         -3.57770       -2.77520        0.19960
H         -0.90790       -3.45910        1.18950
