13
gdb 23659	3.85207	1.81724	1.23601	3.4371	64.34	-0.2188	-0.0196	0.1992	885.1596	0.097218	-402.802117	-402.795701	-402.794756	-402.832486	25.01
N         -0.01040        1.40570        0.15670
C          0.02110        0.02080        0.05240
C         -1.16700       -0.73170        0.02840
N         -1.20300       -2.05850       -0.01300
C         -0.05180       -2.73260       -0.03500
C          1.16720       -2.06760       -0.01720
F          2.30290       -2.77050       -0.04500
C          1.22740       -0.68620        0.02590
H          0.80330        1.88970       -0.19240
H         -0.86930        1.84020       -0.14690
H         -2.12640       -0.21730        0.04600
H         -0.08810       -3.81670       -0.06960
H          2.18810       -0.18340        0.04250
