20
gdb 7773	3.26123	1.62509	1.16239	1.7302	76.39	-0.2417	0.0165	0.2582	1064.4867	0.178135	-349.02598	-349.017908	-349.016964	-349.057997	31.543
C          0.03810        1.55940        0.02660
C          0.03770        0.02870        0.01120
C          0.72840       -0.52920       -1.24670
C          0.99410       -2.00910       -1.15600
C          0.89840       -2.70600       -0.02420
C          0.55700       -2.09080        1.31040
O          1.33450       -2.66860        2.35930
C          0.69160       -0.56360        1.26840
H          1.06080        1.95120        0.08140
H         -0.42510        1.96620       -0.87900
H         -0.51360        1.94800        0.88890
H         -1.00780       -0.31230       -0.01050
H          0.11990       -0.31500       -2.13530
H          1.67900        0.00210       -1.41420
H          1.27160       -2.51550       -2.07820
H          1.08170       -3.77780       -0.01050
H         -0.47570       -2.35410        1.57870
H          2.26150       -2.52890        2.13510
H          1.76200       -0.30830        1.27240
H          0.26090       -0.13230        2.17830
