15
gdb 10045	3.2486	1.37112	1.00692	4.3778	67.95	-0.282	0.0106	0.2926	1114.501	0.116164	-362.62747	-362.618531	-362.617587	-362.661441	30.815
C          0.15920        1.41970       -0.09310
O         -0.12390        0.04470        0.09170
C          0.60890       -0.55870        1.13470
C         -0.02470       -1.94820        1.36350
C         -1.40700       -1.85020        1.82530
N         -2.49310       -1.77750        2.21150
C          2.03790       -0.69390        0.82220
C          3.20410       -0.81190        0.55760
H          1.20740        1.58170       -0.37660
H         -0.49060        1.76690       -0.89830
H         -0.05670        1.99760        0.81760
H          0.50430        0.03220        2.05960
H          0.00790       -2.50260        0.42070
H          0.56490       -2.50330        2.09880
H          4.23680       -0.90930        0.32690
