14
gdb 666	6.35478	3.46444	3.31917	1.6332	52.65	-0.2325	0.0823	0.3148	493.3705	0.120159	-270.384937	-270.379379	-270.378435	-270.413623	20.81
C         -0.00680        1.55130        0.00490
C          0.06280        0.04300       -0.06720
C          0.65510       -0.75010       -1.22310
C          1.94280       -0.09210       -1.70640
O          2.46770       -0.02490       -0.35280
C          1.32590       -0.73810        0.13530
H          0.96230        1.99610       -0.23300
H         -0.75460        1.95320       -0.68700
H         -0.27680        1.87540        1.01560
H         -0.80120       -0.47590        0.34550
H          0.11820       -1.53510       -1.73840
H          2.56350       -0.75390       -2.32090
H          1.87600        0.89450       -2.18010
H          1.49660       -1.50210        0.88580
