18
gdb 5960	3.37398	1.15151	1.05631	4.0537	68.54	-0.2644	0.0326	0.297	1173.1375	0.152469	-381.124815	-381.11512	-381.114175	-381.159286	34.483
C          0.09360        1.57240        0.01620
C          0.01230        0.03450        0.03320
N          0.73510       -0.45840        1.21520
C         -1.44510       -0.48280        0.07630
C         -2.24420       -0.04080        1.29980
O         -3.49400       -0.71200        1.22360
C          0.62990       -0.47560       -1.21980
N          1.14220       -0.89390       -2.16860
H          1.12990        1.89940       -0.11020
H         -0.49370        1.98450       -0.80790
H         -0.27900        1.97110        0.96170
H          0.76070       -1.47470        1.20700
H          1.70170       -0.14580        1.18630
H         -1.96610       -0.16460       -0.83210
H         -1.43250       -1.57860        0.05930
H         -1.69580       -0.30080        2.21470
H         -2.38440        1.05070        1.29410
H         -4.01200       -0.46740        1.99580
