17
gdb 14648	13.35494	0.58462	0.56603	3.6463	76.79	-0.253	0.0206	0.2736	1908.4385	0.13969	-363.836865	-363.826829	-363.825885	-363.875912	32.012
C          0.01860        1.45630        0.03270
C          0.00510        0.00130       -0.02030
C          0.01000       -1.20160       -0.06530
C         -0.02080       -2.65810       -0.11650
C         -1.44570       -3.20080        0.00960
O         -1.36000       -4.62440       -0.05250
C         -2.52300       -5.29600        0.04180
N         -2.53050       -6.55720       -0.00470
H          0.92020        1.82650        0.53310
H         -0.00580        1.89290       -0.97180
H         -0.84650        1.84270        0.58290
H          0.40860       -3.02260       -1.05730
H          0.58800       -3.08780        0.68800
H         -1.88960       -2.88470        0.96190
H         -2.07130       -2.81840       -0.80660
H         -3.39970       -4.64270        0.15620
H         -3.48460       -6.90120        0.08040
