18
gdb 14731	7.63383	0.57144	0.55165	1.7066	74.94	-0.2457	0.0347	0.2804	1988.4212	0.150931	-384.889563	-384.879351	-384.878407	-384.927048	33.508
C         -0.02650        1.34180        0.30190
O         -0.04110       -0.00440       -0.10830
C         -1.30870       -0.60470        0.02360
C         -1.18380       -2.05850       -0.44420
C         -2.44400       -2.78350       -0.35610
C         -3.49730       -3.35920       -0.26750
C         -4.76860       -4.06640       -0.18970
O         -5.02740       -4.44440        1.15810
H          0.99100        1.71520        0.16360
H         -0.71620        1.95890       -0.29570
H         -0.30390        1.44910        1.36250
H         -1.65330       -0.57360        1.06980
H         -2.06060       -0.07540       -0.58430
H         -0.81420       -2.06190       -1.47690
H         -0.41520       -2.55490        0.16030
H         -5.56850       -3.41530       -0.57950
H         -4.72960       -4.94890       -0.84930
H         -5.86900       -4.91170        1.16700
