14
gdb 18973	4.77117	2.40969	1.95333	2.1816	60.28	-0.2468	0.0052	0.252	677.2938	0.111161	-378.659553	-378.654419	-378.653474	-378.688557	21.167
N         -0.06400        1.54720       -0.03540
C          1.40970        1.22770       -0.00780
C          1.14350        0.13140        1.06140
O          2.05920       -0.95360        1.16470
C          2.44070       -1.42520       -0.04670
N          2.05050       -0.97960       -1.16580
C          1.12070        0.12510       -1.07440
C          0.00160        0.04110        0.01070
H         -0.35430        1.90600        0.88120
H          2.18470        1.99310       -0.02510
H          0.88980        0.44820        2.07440
H          3.13890       -2.25210        0.04710
H          0.80180        0.48840       -2.04970
H         -0.88400       -0.59300        0.01520
