15
gdb 9810	3.56703	1.70146	1.27543	4.1643	67.37	-0.2907	-0.0843	0.2064	938.2275	0.117399	-362.677855	-362.669734	-362.66879	-362.710695	29.108
C          0.09890        1.49640       -0.28820
C          0.04650       -0.00230       -0.06700
C          1.35380       -0.79370        0.02320
C          0.55000       -0.58360        1.25650
C         -1.07590       -0.76940       -0.66810
O         -1.23380       -1.96520       -0.56680
C         -2.06060        0.01900       -1.44530
N         -2.83690        0.62160       -2.05470
H          0.97540        1.91700        0.21160
H          0.16940        1.74670       -1.35140
H         -0.78690        1.99660        0.11550
H          1.34600       -1.78300       -0.41890
H          2.26340       -0.22120       -0.11830
H          0.88860        0.13810        1.99120
H         -0.00080       -1.43100        1.64740
