22
gdb 19206	2.42716	2.3378	2.33759	0.0001	79.14	-0.2763	0.0677	0.344	835.4928	0.205965	-313.107632	-313.100788	-313.099844	-313.138587	28.266
C         -0.03430        1.52850        0.01060
C          1.42680        2.06760       -0.00050
C          2.41560        0.88640       -0.01630
C          2.19190        0.01960        1.23750
C          0.73060       -0.51950        1.24860
C         -0.01910       -0.01200        0.00210
C          0.70660       -0.50590       -1.26380
C          2.16790        0.03320       -1.27480
H         -0.57290        1.88620        0.89510
H         -0.58960        1.89570       -0.85960
H          1.59890        2.70320       -0.87620
H          1.61570        2.69380        0.87850
H          3.44330        1.26560       -0.02410
H          2.91060       -0.80740        1.24650
H          2.39270        0.61350        2.13610
H          0.72150       -1.61510        1.26310
H          0.20420       -0.19400        2.15270
H         -1.04680       -0.39110        0.00990
H          0.69720       -1.60130       -1.28950
H          0.16290       -0.17080       -2.15410
H          2.35160        0.63680       -2.17060
H          2.88610       -0.79360       -1.30610
