16
gdb 14004	4.10874	1.49714	1.28748	4.9864	70.1	-0.269	0.0141	0.2831	964.6215	0.131533	-342.760379	-342.753066	-342.752122	-342.792196	27.314
N         -0.06300       -1.15140       -0.07450
C         -0.03390        0.00360       -0.02500
C          0.02310        1.44430       -0.01510
N          0.57520        2.07920        1.20720
C          1.33190        2.16830       -0.02380
C          2.71880        1.57080       -0.26660
C          2.89800        2.60780       -1.41690
C          1.65780        3.39170       -0.88840
H         -0.81370        1.92440       -0.51590
H          0.06920        2.94290        1.39410
H          3.38550        1.75400        0.58030
H          2.76040        0.51130       -0.52720
H          3.84190        3.15390       -1.44070
H          2.72000        2.17030       -2.40140
H          0.90780        3.71090       -1.61640
H          1.94220        4.25300       -0.27500
