17
gdb 12198	4.22794	1.44279	1.24416	3.6356	69.13	-0.2777	0.0213	0.299	997.0788	0.141967	-363.870551	-363.862333	-363.861389	-363.903093	30.244
C          0.07780        1.58850       -0.02650
C          0.09560        0.07130        0.04460
C          1.04490       -0.72370       -0.89610
C          1.29010       -1.72720        0.27270
C          2.62750       -2.22860        0.51860
N          3.69910       -2.58800        0.76640
C          0.77790       -0.61440        1.26250
O          1.81180        0.20340        1.74610
H          1.07840        1.99480        0.13650
H         -0.27780        1.92170       -1.00730
H         -0.58670        2.01410        0.73260
H         -0.92080       -0.32770       -0.04690
H          0.63290       -1.13930       -1.81690
H          1.95030       -0.15910       -1.12600
H          0.58460       -2.56170        0.23340
H          0.12740       -0.96890        2.07250
H          2.41760       -0.33560        2.26820
