15
gdb 4144	4.912	1.53018	1.31444	1.7673	63.46	-0.2463	0.0064	0.2526	911.2735	0.119038	-399.752684	-399.745817	-399.744872	-399.783859	26.308
O         -0.11780        1.35610        0.17700
N          0.04320       -0.03760        0.08060
C         -1.07250       -0.62000       -0.09370
C         -2.44120        0.02010       -0.24000
C         -3.29170       -1.09900       -0.80470
O         -2.75440       -1.64800       -2.01540
C         -2.53620       -2.36190       -0.79320
C         -1.15740       -2.13340       -0.20590
H          0.79240        1.65990        0.25860
H         -2.82220        0.35750        0.73280
H         -2.39820        0.89910       -0.88940
H         -4.37620       -1.05820       -0.74980
H         -3.01240       -3.33630       -0.72620
H         -0.35570       -2.54470       -0.82480
H         -1.08720       -2.60450        0.78330
