15
gdb 20744	3.278	1.89045	1.28901	0.9691	62.69	-0.2534	-0.0023	0.2511	918.5736	0.120316	-395.987684	-395.979862	-395.978918	-396.020351	27.568
C          0.11240        1.48530        0.05370
C          0.05040       -0.00700        0.06050
N          0.03080       -0.73430       -1.05780
N         -0.02730       -1.98540       -0.61210
N         -0.03710       -2.14600        0.70250
C          0.00550       -0.89340        1.16350
C          0.04100       -0.58460        2.62790
O          1.19180        0.17080        2.99840
H          0.79110        1.83760        0.83440
H          0.45310        1.84910       -0.91780
H         -0.87190        1.92570        0.25240
H         -0.04860       -2.77030       -1.24230
H         -0.81170        0.04120        2.91200
H         -0.03390       -1.52440        3.19100
H          1.96570       -0.34670        2.75150
