19
gdb 16374	2.6539	2.16876	1.4213	1.4334	72.06	-0.2048	0.0873	0.2921	936.6498	0.164643	-365.014742	-365.006474	-365.00553	-365.047149	31.51
C         -0.06480        1.53900       -0.00730
N         -0.02390        0.09880        0.09710
C         -1.26640       -0.62230        0.44990
C         -0.43360       -1.58360        1.34410
O         -0.16600       -2.86410        0.82340
C          0.68920       -0.54820        1.20300
C          2.16140       -0.77440        1.31520
C          1.44490        0.11140        2.32220
H          0.94170        1.93370       -0.18440
H         -0.68440        1.82420       -0.86410
H         -0.47560        2.03400        0.89230
H         -1.97790       -0.01630        1.03270
H         -1.79020       -1.07860       -0.39720
H         -0.81750       -1.74290        2.35320
H          0.26630       -2.74510       -0.03000
H          2.49580       -1.75720        1.63140
H          2.80650       -0.28720        0.59060
H          1.62630        1.17970        2.26200
H          1.30100       -0.25900        3.33260
