20
gdb 19930	3.46765	2.20209	1.80261	0.263	76.52	-0.2568	0.0774	0.3342	828.8158	0.18061	-311.857965	-311.851496	-311.850552	-311.888219	27.185
C          0.19860        1.62940        0.32980
C          1.37000        0.75820       -0.04130
C          2.24760        0.21380        1.08360
C          1.32220       -0.62650        1.99160
C          0.58010        0.03750        3.19190
C         -0.78750       -0.35430        2.55990
C         -0.05150       -0.80300        1.26010
C         -0.01930        0.15470        0.07700
H          0.12580        2.01820        1.33990
H         -0.17130        2.31650       -0.42420
H          1.82760        0.91200       -1.01290
H          3.03150       -0.41950        0.65280
H          2.75700        1.00820        1.64290
H          1.79800       -1.56570        2.28350
H          0.79050       -0.39950        4.17140
H          0.74510        1.11610        3.26850
H         -1.27250       -1.18370        3.08090
H         -1.51910        0.44850        2.44010
H         -0.29460       -1.81200        0.91710
H         -0.58030       -0.11610       -0.81110
