15
gdb 9538	2.88374	1.99658	1.57411	3.3444	57.68	-0.241	0.0194	0.2604	843.9689	0.118775	-436.947081	-436.939233	-436.938289	-436.979181	28.839
O         -0.03160        1.41800       -0.01600
C          0.03790       -0.00080       -0.06460
C         -1.39000       -0.53850       -0.08530
O         -2.09900       -0.02650       -1.17890
C         -1.63040       -2.05800        0.13950
N         -2.22560       -1.70480        1.43760
C         -2.05270       -0.35410        1.31810
O         -2.25810        0.59000        2.04230
H         -0.50290        1.64760        0.79830
H          0.55770       -0.25830       -0.99320
H          0.60430       -0.41760        0.78110
H         -1.81580        0.89550       -1.26040
H         -2.33390       -2.48780       -0.57740
H         -0.73120       -2.67830        0.21210
H         -2.54460       -2.27600        2.20640
