12
gdb 693	6.64811	3.82504	3.12955	1.9201	45.31	-0.2521	0.0773	0.3294	456.2711	0.096669	-306.320451	-306.315325	-306.31438	-306.348781	19.349
O          0.05990        1.39010       -0.11900
C          0.04190       -0.00430       -0.01880
C          0.32400       -0.66660        1.39140
C         -1.08870       -1.24810        1.33440
O         -1.98870       -0.13660        1.18050
C         -1.34890       -0.66710        0.00740
H         -0.62930        1.70630        0.47980
H          0.69960       -0.39700       -0.79760
H          1.11450       -1.41980        1.34750
H          0.51630        0.02610        2.21400
H         -1.49100       -2.14410        1.79110
H         -1.99230       -0.98310       -0.80580
