13
gdb 3427	4.94827	2.93994	2.08736	4.2291	53.74	-0.2328	0.0222	0.255	610.3919	0.104783	-340.646229	-340.64062	-340.639676	-340.675542	21.349
O          0.01420       -0.03080       -0.06310
C          0.01760        1.17870       -0.00830
N         -1.07930        1.99380        0.11410
C         -0.82650        3.42490        0.05330
C          0.69450        3.49450       -0.02260
N          1.33700        2.91480        1.16690
C          1.21180        2.10670       -0.07760
H         -1.98980        1.59950        0.28520
H         -1.28280        3.87720       -0.83730
H         -1.20610        3.94490        0.94080
H          1.16500        4.31730       -0.54770
H          2.29390        3.25810        1.22560
H          2.09530        1.79390       -0.61900
