14
gdb 5131	3.5594	2.05314	1.31282	1.9829	60.04	-0.1769	0.042	0.2189	874.1001	0.107035	-415.887085	-415.87886	-415.877916	-415.91984	28.684
C         -0.06030        1.45290       -0.00060
N         -0.01600        0.00640        0.01690
C         -0.12310       -0.85100       -1.04200
N         -0.03910       -2.11150       -0.66440
C          0.12870       -2.07370        0.68740
O          0.25790       -3.18750        1.46110
C          0.14680       -0.78080        1.13620
O          0.28210       -0.19430        2.35600
H          0.87070        1.87630        0.38760
H         -0.19860        1.78400       -1.03130
H         -0.89010        1.82500        0.60740
H         -0.25960       -0.49500       -2.05120
H          0.20460       -3.94040        0.86140
H          0.38370       -0.89880        3.00490
