17
gdb 15921	3.3571	1.8887	1.52291	4.254	72.34	-0.2831	0.021	0.3041	880.8067	0.143793	-326.721559	-326.714341	-326.713397	-326.75407	27.133
N         -0.03510       -1.15560       -0.32610
C         -0.02620       -0.01110       -0.15270
C         -0.00170        1.41490        0.06260
C         -0.51400        2.32330       -1.09940
C          0.80370        3.15130       -1.04730
C          1.33580        2.27110        0.11150
C          0.96040        2.75920        1.53340
C         -0.35650        1.92920        1.49350
H         -0.65240        1.78050       -2.03560
H         -1.43840        2.85890       -0.86990
H          1.39420        3.06990       -1.96220
H          0.69430        4.21180       -0.80520
H          2.31720        1.81620       -0.01720
H          1.65340        2.42140        2.30660
H          0.84210        3.84170        1.63070
H         -1.29190        2.49190        1.54400
H         -0.39280        1.13120        2.23660
