19
gdb 9951	3.12909	1.47224	1.367	3.3397	73.49	-0.2285	-0.0185	0.21	1026.0134	0.162194	-365.048788	-365.039217	-365.038273	-365.082883	33.874
C          2.00530       -3.75540        1.55160
C          1.02660       -2.77380        0.94380
N         -0.01500       -2.08510        1.68250
C         -0.17950       -2.27980        3.11630
C          1.11630       -1.27680        1.17960
C          2.16640       -0.65010        2.07100
C          0.69690       -0.42930        0.01690
O          1.26560        0.56890       -0.34920
H          2.35790       -3.46570        2.54210
H          1.53790       -4.74240        1.63910
H          2.87930       -3.86100        0.90100
H          0.69160       -3.08560       -0.04720
H          0.74820       -2.38440        3.69410
H         -0.73480       -1.42880        3.52180
H         -0.78280       -3.17910        3.27550
H          2.92640       -0.18210        1.44080
H          1.72740        0.14240        2.68620
H          2.65600       -1.36390        2.73320
H         -0.21040       -0.81620       -0.49830
