12
gdb 21390	5.63447	2.33202	1.64937	1.8035	60.56	-0.2122	-0.001	0.2113	699.8823	0.088352	-373.725805	-373.720385	-373.719441	-373.755095	21.1
N          0.02510        1.31980        0.05570
N          1.29870        1.81540        0.03290
C          2.08190        0.76950       -0.00610
N          1.35510       -0.39830       -0.00920
C          1.37240       -1.78900       -0.03500
C          0.04310       -2.14100       -0.00780
N         -0.81230       -1.05250        0.03380
C          0.02180       -0.04150        0.03120
H         -0.75760        1.94700        0.08860
H          3.15690        0.82360       -0.03220
H          2.28220       -2.36100       -0.06900
H         -0.35410       -3.14560       -0.01600
