6
gdb 10	159.03567	9.22327	9.22324	3.8266	24.45	-0.3264	0.0376	0.364	160.7223	0.045286	-132.71815	-132.714563	-132.713619	-132.742149	10.287
C         -0.01790        1.46710        0.01010
C          0.00170        0.01040        0.00210
N          0.01770       -1.14450       -0.00420
H          1.00200        1.86090        0.00250
H         -0.54400        1.84480       -0.87080
H         -0.52710        1.83520        0.90490
