18
gdb 13990	5.43743	1.07474	1.00436	2.1308	67.73	-0.2316	0.0735	0.3051	1175.8422	0.153141	-384.884901	-384.876786	-384.875841	-384.917873	29.783
O         -0.08700        1.48120       -0.06450
C          0.00130        0.06870       -0.15910
C         -1.37460       -0.50550        0.17410
C         -1.40750       -2.00520        0.11620
C         -1.58060       -2.81060       -1.16380
C         -2.53750       -2.99990       -0.02860
O         -1.99260       -3.89360        0.94530
C         -0.91210       -2.95840        1.20650
H          0.77470        1.85290       -0.27380
H          0.29730       -0.25120       -1.17060
H          0.75190       -0.33280        0.54170
H         -1.66510       -0.15520        1.17240
H         -2.10270       -0.08550       -0.52950
H         -1.95750       -2.23540       -2.00480
H         -0.89770       -3.61580       -1.42250
H         -3.61550       -2.89230       -0.07610
H          0.07640       -3.41770        1.08410
H         -1.00330       -2.54060        2.21680
