14
gdb 18332	3.50623	2.28262	1.62506	2.5505	56.86	-0.2403	-0.0446	0.1956	769.6116	0.107674	-419.661265	-419.654783	-419.653839	-419.692371	23.754
O         -0.03020        0.07310        0.22400
C         -0.01820        1.25760        0.03050
C         -1.22940        2.19320       -0.02620
O         -0.80460        3.36180       -0.71470
C          0.60650        3.49940       -0.62650
C          1.15940        4.02970        0.71290
O          1.62610        2.70620        1.08260
C          1.20680        2.15250       -0.18990
H         -2.06010        1.73550       -0.56950
H         -1.56780        2.41670        0.99770
H          0.95470        3.98660       -1.53700
H          1.99300        4.73680        0.63210
H          0.40620        4.42150        1.40480
H          2.01700        1.67330       -0.74350
