16
gdb 14853	3.02239	1.62523	1.16166	3.2539	65.04	-0.25	0.0134	0.2634	1005.8712	0.131238	-379.898077	-379.889984	-379.88904	-379.930918	28.813
O         -0.01810        1.40560       -0.25130
C          0.06120       -0.01070       -0.20280
C         -1.33400       -0.51260        0.12690
C         -2.34650       -0.38240       -1.03900
N         -2.09960       -1.80670       -1.37790
C         -1.53760       -2.05440       -0.03420
C         -0.36490       -2.93240        0.00660
N          0.56360       -3.61910        0.05770
H          0.84180        1.74620       -0.51410
H          0.38770       -0.43220       -1.16510
H          0.77060       -0.35150        0.56670
H         -1.65510       -0.10600        1.08660
H         -3.36450       -0.16750       -0.68860
H         -2.08490        0.32240       -1.83260
H         -2.91070       -2.36590       -1.61710
H         -2.26220       -2.42810        0.70330
