21
gdb 3012	4.5769	1.57102	1.28598	0.0772	74.56	-0.271	0.0918	0.3627	1015.7505	0.194089	-274.982348	-274.973751	-274.972807	-275.015131	31.808
C         -0.16270        1.52130       -0.04480
C         -0.03170       -0.00230       -0.13770
C          0.89660       -0.50560       -1.26030
C          2.35630       -0.07190       -1.05760
C          0.80250       -2.01630       -1.39320
C         -0.31730       -2.65380       -2.17530
C          1.09620       -2.69330       -2.70720
H          0.78830        2.00210        0.20430
H         -0.51020        1.94630       -0.99360
H         -0.88430        1.80540        0.72790
H          0.32610       -0.39910        0.82280
H         -1.02590       -0.43880       -0.29310
H          0.54120       -0.07080       -2.20740
H          2.99080       -0.45650       -1.86200
H          2.46200        1.01670       -1.03980
H          2.74940       -0.46020       -0.11010
H          1.12310       -2.55620       -0.50380
H         -0.75570       -3.57400       -1.80500
H         -1.02380       -1.99670       -2.67300
H          1.33130       -2.06180       -3.55840
H          1.62410       -3.64070       -2.70110
