15
gdb 21145	3.39647	2.01086	1.28331	3.5561	65.67	-0.2143	0.0052	0.2195	923.69	0.118405	-395.96585	-395.957563	-395.956619	-396.000047	27.613
C          0.03520        1.38820        0.00800
N          0.02740       -0.06780        0.00280
C         -1.09040       -0.65090        0.00920
O         -2.34790       -0.10210        0.02070
N         -3.32760       -1.14300        0.02410
C         -2.63250       -2.22910        0.01440
N         -1.28670       -2.02800        0.00600
C         -0.20810       -2.99140       -0.00700
H          1.07080        1.73640       -0.00110
H         -0.47420        1.80980       -0.86930
H         -0.45620        1.80320        0.89860
H         -3.08460       -3.21020        0.01410
H         -0.62880       -3.99830       -0.00150
H          0.40810       -2.85620       -0.90030
H          0.42930       -2.85520        0.87100
