17
gdb 15411	4.97007	1.00677	0.93143	2.7698	66.74	-0.2538	-0.0309	0.2229	1242.788	0.140465	-400.961811	-400.953053	-400.952109	-400.996106	30.176
C          0.19690        0.76770        0.47680
O         -0.32690        0.31710       -0.75730
C         -1.51830       -0.43100       -0.64130
C         -1.26250       -1.84800       -0.16910
N         -1.37020       -2.13860        1.25540
C         -2.34270       -2.76700        0.33700
C         -3.75810       -2.32580        0.49110
O         -4.70120       -2.96640        0.09980
H          1.06530        1.38840        0.24350
H         -0.53830        1.37360        1.02770
H          0.51230       -0.05870        1.12690
H         -2.23220        0.06710        0.03150
H         -1.95330       -0.45910       -1.64650
H         -0.47260       -2.34650       -0.73050
H         -0.67820       -2.82220        1.54990
H         -2.23750       -3.81890        0.08270
H         -3.88070       -1.35260        1.01370
