14
gdb 12728	3.20903	2.2428	1.62953	0.8231	57.92	-0.2552	-0.0402	0.2151	782.7643	0.1059	-419.650096	-419.643044	-419.6421	-419.681432	26.217
O          0.45210        1.31750       -0.30830
C          0.10750        0.00470       -0.06770
C          0.24990       -0.94610       -1.27640
O         -1.05830       -1.52090       -1.08310
C         -1.32240       -0.70520        0.06420
C         -0.87590       -1.39160        1.38010
C          0.43060       -0.57800        1.30610
O          1.24440       -0.23190        2.11740
H          0.79350        1.68850        0.51590
H          0.30430       -0.37090       -2.20760
H          1.05520       -1.68840       -1.25130
H         -2.28750       -0.19850        0.03770
H         -1.45840       -1.13430        2.26990
H         -0.78180       -2.47730        1.30840
