19
gdb 13371	5.90655	1.10061	0.96741	2.8855	75.38	-0.2406	0.0317	0.2724	1252.6849	0.166158	-365.090107	-365.081764	-365.08082	-365.124296	29.975
C         -0.39080        1.54750       -0.05100
C          0.47390        0.30660        0.15250
N          1.14210       -0.05840       -1.09440
C          2.02340       -0.95630       -1.06460
C          2.81200       -1.47870       -2.24690
C          4.02780       -2.13700       -1.57970
C          3.43860       -2.57780       -0.23290
O          2.41870       -1.61510        0.07400
H          0.22170        2.39720       -0.36790
H         -1.14140        1.37050       -0.82720
H         -0.90680        1.82050        0.87540
H          1.20910        0.48130        0.95100
H         -0.14960       -0.53080        0.49810
H          2.20690       -2.21960       -2.78330
H          3.05050       -0.67780       -2.94660
H          4.44600       -2.97150       -2.14580
H          4.82180       -1.40100       -1.42010
H          2.97970       -3.57310       -0.29650
H          4.15880       -2.57920        0.58880
