10
gdb 329	5.61395	2.83765	2.00723	4.1272	47.23	-0.3433	-0.0129	0.3304	583.9904	0.072887	-264.235803	-264.229597	-264.228653	-264.265543	20.75
C         -0.01800        1.55320        0.00860
C         -0.01780        0.00450        0.03710
C          0.71910       -0.50780        1.20180
N          1.32550       -0.88180        2.11000
C         -1.38750       -0.52990        0.01200
N         -2.47230       -0.92160       -0.03500
H          1.01090        1.91750       -0.00920
H         -0.53960        1.90120       -0.88490
H         -0.52080        1.95110        0.89160
H          0.49300       -0.36740       -0.86050
