22
gdb 6894	2.80559	1.41013	1.2638	1.2371	78.88	-0.242	0.0627	0.3047	1140.8482	0.197829	-350.199462	-350.189403	-350.188459	-350.233763	37.081
C         -0.03230        1.51940       -0.28270
C          0.00500        0.05000        0.15810
C         -1.36200       -0.60260        0.09890
C         -1.81850       -1.35370       -1.14020
O         -0.91500       -1.57470       -2.18810
C         -1.57930       -2.11170        0.14110
C         -0.39000       -3.05020        0.22850
C         -2.80530       -2.60340        0.88910
H          0.95990        1.97800       -0.22390
H         -0.38400        1.61650       -1.31630
H         -0.70960        2.10640        0.34740
H          0.70730       -0.49890       -0.47580
H          0.39880       -0.01040        1.18070
H         -2.13910       -0.02080        0.59320
H         -2.85310       -1.23020       -1.46350
H         -0.80680       -0.74680       -2.66780
H          0.41660       -2.75730       -0.44360
H          0.00280       -3.08900        1.25120
H         -0.69160       -4.06740       -0.04710
H         -3.12670       -3.58370        0.51740
H         -2.59610       -2.70640        1.96080
H         -3.64820       -1.91300        0.78230
