19
gdb 17312	2.57034	2.47896	1.68863	1.4788	75.2	-0.2138	0.0708	0.2846	872.7306	0.165132	-327.836555	-327.828799	-327.827854	-327.868054	30.364
C         -0.03450        1.63770        0.02960
C          0.11980        0.11700        0.06850
C          1.30080       -0.74900       -0.30090
C          2.61220       -0.38030        0.41050
C          2.56180        0.74210        1.37320
N          2.00920       -0.56510        1.77750
C          0.68200       -0.85790        1.08530
C         -0.12740       -1.93150        1.74660
H          0.83600        2.13780       -0.40100
H         -0.89360        1.89820       -0.59650
H         -0.22030        2.06480        1.02070
H         -0.77370       -0.36440       -0.32950
H          1.27740       -1.45690       -1.12070
H          3.54630       -0.87380        0.16040
H          3.48850        0.95550        1.90120
H          1.92280        1.60100        1.24510
H         -0.55950       -1.56600        2.68630
H         -0.94740       -2.26240        1.10210
H          0.49990       -2.79570        1.98670
