12
gdb 20608	3.53122	1.98923	1.28264	6.7017	62.91	-0.2735	-0.0324	0.2411	865.9625	0.085361	-373.723904	-373.716949	-373.716004	-373.755582	24.24
C         -0.00430        1.54350        0.08100
C          0.01570        0.05800       -0.01230
C         -0.00890       -0.80850       -1.09230
N          0.02740       -2.10360       -0.63660
N          0.07270       -2.08720        0.65360
N          0.06600       -0.78770        1.03910
C         -0.06280       -0.46300       -2.46580
N         -0.10700       -0.13780       -3.57580
H          0.89270        1.92520        0.57990
H         -0.04510        1.97440       -0.92100
H         -0.87680        1.89760        0.64010
H          0.09730       -0.56820        2.02320
