21
gdb 15432	3.6599	1.01336	0.86131	0.8057	76.12	-0.2225	0.0768	0.2992	1388.0009	0.18748	-366.226184	-366.216621	-366.215676	-366.260954	34.327
C         -0.21410        1.58440       -0.29110
C         -0.48750        0.08330       -0.36370
N          0.44930       -0.55110       -1.28510
C          1.71400       -1.02980       -0.73750
C          0.69310       -1.99650       -1.23320
C         -0.01270       -2.95040       -0.29110
C         -1.36070       -3.42220       -0.82830
O         -1.87650       -4.37950        0.08380
H          0.78900        1.77880        0.10250
H         -0.27900        2.03520       -1.28520
H         -0.93690        2.07770        0.36630
H         -0.45050       -0.34070        0.65380
H         -1.50140       -0.08950       -0.74520
H          2.60810       -0.80950       -1.31540
H          1.84990       -0.97730        0.34340
H          0.85140       -2.41650       -2.22750
H          0.62140       -3.83340       -0.14340
H         -0.15780       -2.50630        0.69780
H         -2.04330       -2.56480       -0.93720
H         -1.22460       -3.85760       -1.83200
H         -2.73010       -4.67790       -0.24310
