12
gdb 6241	4.82871	1.23236	1.15205	4.7958	58.1	-0.3083	-0.0798	0.2284	1017.4218	0.081658	-414.690227	-414.68211	-414.681166	-414.723802	27.082
C          0.36800        1.07990       -0.10460
C         -0.43470       -0.11590        0.30980
N         -0.97730       -0.42300        1.39550
O         -0.68670       -1.01320       -0.76420
C          0.33040       -1.76560       -1.20140
O          1.45310       -1.78110       -0.78240
C         -0.12110       -2.61000       -2.31280
N         -0.41730       -3.29190       -3.19630
H          0.44770        1.79100        0.71900
H          1.37120        0.76770       -0.40760
H         -0.10620        1.57070       -0.96050
H         -0.80880        0.29360        2.10110
