13
gdb 7242	4.90669	1.31937	1.03978	1.5932	59.16	-0.2442	-0.0548	0.1894	1044.6651	0.096141	-431.982254	-431.97427	-431.973326	-432.015104	27.864
N          0.11180        1.29480        0.00640
C          0.06180       -0.04720        0.00030
O          1.01150       -0.81340       -0.01260
C         -1.40080       -0.56140        0.01200
O         -2.34450        0.19570        0.02510
N         -1.40560       -1.93110        0.00460
C         -2.48210       -2.81260        0.01040
N         -3.69360       -2.44370        0.02440
H          0.99640        1.77280        0.00040
H         -0.76020        1.80130        0.01750
H         -0.46670       -2.31460       -0.00660
H         -2.12760       -3.85050        0.00130
H         -4.30170       -3.26130        0.02590
