18
gdb 9141	3.80811	0.86477	0.7412	2.833	78.95	-0.2421	-0.0254	0.2168	1552.4201	0.150587	-347.796123	-347.786131	-347.785186	-347.834325	33.493
C          0.06480        1.55700       -0.12830
C         -0.00170        0.04240        0.14030
C         -1.36140       -0.48690        0.10410
C         -2.49260       -0.89970        0.05020
C         -3.86340       -1.40110        0.04800
C         -3.92020       -2.94260       -0.07720
C         -4.55440       -0.98860        1.35090
O         -5.63310       -0.46390        1.40980
H          1.10120        1.90510       -0.09010
H         -0.34310        1.79480       -1.11430
H         -0.51280        2.10960        0.61750
H          0.61360       -0.48910       -0.59710
H          0.44600       -0.17730        1.11800
H         -4.43850       -0.95030       -0.76850
H         -4.95900       -3.28230       -0.11590
H         -3.40900       -3.26230       -0.98820
H         -3.42480       -3.41940        0.77380
H         -3.96920       -1.23780        2.26480
