17
gdb 1301	3.24496	2.59114	2.1458	2.6086	64.27	-0.2338	-0.0164	0.2174	729.1336	0.146469	-309.738513	-309.730687	-309.729743	-309.770655	28.48
C         -0.15410        1.52260        0.09500
C         -0.02640       -0.00110       -0.02470
C         -1.37570       -0.69420        0.16280
C          0.83870       -0.47150       -1.24800
C          2.01460       -0.86470       -0.30330
C          1.09560       -0.55090        0.88760
O          1.17890       -0.71220        2.07120
H          0.81230        2.02220       -0.03160
H         -0.83460        1.90950       -0.67170
H         -0.54950        1.80050        1.07690
H         -2.09530       -0.35100       -0.58900
H         -1.28560       -1.78150        0.07210
H         -1.78540       -0.47440        1.15360
H          0.40580       -1.32490       -1.77430
H          1.06710        0.30880       -1.97640
H          2.37340       -1.89640       -0.34910
H          2.88420       -0.20160       -0.35070
