13
gdb 11229	4.74215	1.476	1.27341	4.4908	59.49	-0.2494	0.0184	0.2678	918.5814	0.097463	-394.81331	-394.806116	-394.805172	-394.845486	25.702
N          0.01800        1.36320       -0.12990
C         -0.04640        0.00700       -0.07700
N         -1.10140       -0.69710        0.09420
C         -0.66110       -2.09320        0.04040
C          0.85790       -2.01780       -0.33130
O          1.14780       -0.61130       -0.27750
C         -0.88550       -2.77880        1.32490
N         -1.03880       -3.33270        2.32730
H          0.92250        1.77540        0.03080
H         -0.76960        1.84700        0.27010
H         -1.22220       -2.64510       -0.72250
H          1.50860       -2.53920        0.37220
H          1.04820       -2.37720       -1.34600
