18
gdb 6942	2.62412	2.24381	1.65177	2.4299	72.78	-0.2369	-0.0155	0.2213	876.4719	0.152615	-347.845027	-347.836843	-347.835899	-347.877449	30.795
C         -0.04940        1.55780        0.01870
C         -0.02860        0.01750       -0.03980
C         -1.46910       -0.53080       -0.01380
C          0.78390       -0.51680       -1.19680
C          1.83890       -1.23980       -0.81850
C          1.95940       -1.34500        0.67750
C          0.75460       -0.53390        1.17750
O          0.45530       -0.34820        2.32850
H          0.96250        1.97300       -0.01590
H         -0.61190        1.96640       -0.82740
H         -0.52570        1.88930        0.94600
H         -2.04380       -0.14000       -0.86020
H         -1.48230       -1.62340       -0.07200
H         -1.96600       -0.22960        0.91300
H          0.50870       -0.31370       -2.22670
H          2.54470       -1.70900       -1.49440
H          1.90480       -2.37340        1.05780
H          2.88990       -0.92390        1.08030
