16
gdb 1533	4.40598	1.74905	1.51822	2.1624	58.38	-0.2558	0.0201	0.2759	867.5163	0.135226	-362.897428	-362.889055	-362.888111	-362.931065	28.103
C         -0.56010        0.50460       -0.40990
O          0.50530        0.34010       -1.32130
C          1.54430       -0.46730       -0.82480
C          1.17250       -1.93200       -0.65270
N          1.50740       -2.56310        0.39520
O          0.51040       -2.38520       -1.74550
C          0.10110       -3.74460       -1.74830
H         -1.06500       -0.44650       -0.18670
H         -0.21710        0.94390        0.53940
H         -1.27800        1.18240       -0.87730
H          2.35410       -0.40050       -1.56010
H          1.91990       -0.11330        0.14440
H          1.25180       -3.54960        0.36600
H          0.96250       -4.42230       -1.70260
H         -0.57150       -3.96160       -0.90960
H         -0.43000       -3.89930       -2.68790
