9
gdb 141	18.6968	3.40509	3.26056	1.7013	41.39	-0.265	0.0189	0.2839	397.8388	0.066467	-229.879598	-229.87469	-229.873746	-229.907107	16.924
C          0.01720       -1.18640       -0.03290
C          0.01930        0.01400        0.02270
C         -0.01070        1.45110        0.07030
C          0.52200        2.19920        1.22650
O          1.24670        2.14210        0.00560
H          0.02290       -2.24760       -0.07870
H         -0.80100        1.91940       -0.51510
H          0.08660        3.16620        1.47520
H          0.95420        1.64470        2.05700
