12
gdb 367	9.64235	1.99929	1.69878	5.1141	43.53	-0.2447	-0.01	0.2348	677.014	0.09331	-343.492484	-343.485107	-343.484162	-343.524104	24.017
O          0.03860        1.37480       -0.16310
C         -0.03750       -0.00530        0.07370
C         -1.49740       -0.45440        0.01370
O         -2.42010        0.31310        0.02670
C         -1.67420       -1.97070       -0.06440
O         -3.01320       -2.30030        0.19030
H          0.95290        1.64810       -0.04550
H          0.54320       -0.59800       -0.65530
H          0.34070       -0.28660        1.07310
H         -1.34550       -2.27740       -1.07370
H         -0.97370       -2.44380        0.64650
H         -3.11750       -3.24740        0.06130
