17
gdb 11438	4.03154	1.38419	1.08297	4.7026	65.32	-0.2349	0.0398	0.2747	1065.9848	0.14356	-401.045957	-401.03805	-401.037106	-401.078573	29.012
O         -0.08730        1.43890        0.08960
C          0.01890        0.02970       -0.05260
C         -1.38930       -0.53690        0.03550
C         -1.45550       -2.07960       -0.05600
C         -2.63280       -2.46180        0.85600
C         -2.75360       -1.29220        1.84210
O         -3.40340       -1.25620        2.86330
N         -1.99040       -0.27670        1.33100
H          0.79790        1.81210        0.12480
H          0.46370       -0.24830       -1.02140
H          0.63390       -0.41000        0.74750
H         -1.98300       -0.07400       -0.76790
H         -1.56800       -2.42230       -1.08640
H         -0.52460       -2.50470        0.33580
H         -3.57660       -2.53050        0.30300
H         -2.50120       -3.40340        1.39140
H         -2.00470        0.64770        1.73240
