19
gdb 6099	4.47339	0.9758	0.83878	3.1699	70.02	-0.2384	0.0391	0.2776	1383.753	0.163361	-402.240726	-402.230773	-402.229828	-402.276843	34.619
C          0.01870        1.48280       -0.01000
C         -0.11680       -0.03410        0.06810
O          0.75630       -0.59490        1.05480
C         -1.55950       -0.47960        0.32830
N         -1.62940       -1.92000        0.45050
C         -2.57620       -2.67290       -0.18020
C         -2.43650       -4.17610        0.00960
O         -3.47590       -2.18540       -0.84270
H          1.06230        1.76250       -0.17530
H         -0.58510        1.89050       -0.82670
H         -0.32040        1.95430        0.92120
H          0.21830       -0.48470       -0.87320
H          0.60690       -0.11830        1.87970
H         -1.92850        0.00990        1.24420
H         -2.22450       -0.18670       -0.48790
H         -0.86520       -2.35960        0.93830
H         -2.37180       -4.64880       -0.97390
H         -1.56670       -4.46630        0.60440
H         -3.34080       -4.55510        0.49350
