23
gdb 1570	5.74284	1.08531	0.97761	0.0449	78.49	-0.2976	0.0854	0.383	1297.8598	0.216515	-276.204532	-276.194768	-276.193824	-276.239054	34.924
C         -0.05020        1.61830       -0.09010
C          0.01820        0.09280        0.03080
C         -1.36880       -0.56010        0.08040
C         -1.37640       -2.10080        0.08650
C         -0.72020       -2.67240        1.35220
C         -2.81500       -2.62240       -0.09860
C         -2.93460       -4.13260       -0.32780
H          0.94940        2.06290       -0.12490
H         -0.58120        1.92000       -1.00010
H         -0.58090        2.05950        0.76110
H          0.57900       -0.31650       -0.82050
H          0.59190       -0.16990        0.92720
H         -1.91010       -0.19500        0.96590
H         -1.94590       -0.21240       -0.78760
H         -0.78910       -2.43850       -0.78180
H         -0.70060       -3.76580        1.33980
H          0.31350       -2.33270        1.46180
H         -1.27020       -2.35960        2.24870
H         -3.41380       -2.33580        0.77740
H         -3.26470       -2.10080       -0.95350
H         -2.60010       -4.71030        0.53920
H         -3.97320       -4.41580       -0.52620
H         -2.33510       -4.44980       -1.18890
