20
gdb 12195	3.90461	1.3962	1.19213	0.8372	81.04	-0.2522	0.0518	0.3039	1082.5795	0.175569	-311.834821	-311.825929	-311.824985	-311.867786	33.794
C         -0.05690        1.58390       -0.10550
C          0.07210        0.07250        0.00790
C          1.09170       -0.66780       -0.89690
C          1.37640       -1.64660        0.28480
C          2.72880       -2.11650        0.49960
C          3.85900       -2.48910        0.67850
C          0.75650       -0.57500        1.26010
C          1.78080        0.29080        1.98480
H          0.90890        2.08270        0.02270
H         -0.44650        1.86570       -1.09020
H         -0.74350        1.98600        0.64790
H         -0.91640       -0.38370       -0.12090
H          0.73270       -1.10710       -1.83040
H          1.96780       -0.05050       -1.11380
H          0.69850       -2.50450        0.21890
H          4.85450       -2.82430        0.83310
H          0.06070       -0.99780        1.99120
H          2.51810        0.72160        1.30010
H          1.29000        1.11480        2.51300
H          2.33240       -0.30330        2.71950
