20
gdb 8421	3.50728	1.82274	1.53572	1.5005	74.74	-0.2303	0.087	0.3173	934.062	0.175435	-348.973387	-348.964993	-348.964049	-349.005372	32.654
C          0.20990        1.63900       -0.44240
C          0.25920        0.14420       -0.20640
C          1.50730       -0.67340       -0.29260
O          2.63550        0.03290        0.23170
C          2.07420       -0.04880        1.59100
C          2.83890       -1.11810        2.36820
C          2.10020        1.28330        2.32650
C          0.76070       -0.60640        1.02290
H          1.19970        2.08430       -0.32650
H         -0.12620        1.84150       -1.46510
H         -0.48440        2.14180        0.23930
H         -0.59230       -0.39440       -0.62230
H          1.70080       -1.48200       -0.98920
H          3.87520       -0.80270        2.52340
H          2.37950       -1.28530        3.34880
H          2.84300       -2.06470        1.82170
H          1.52610        2.05420        1.81420
H          1.68680        1.16060        3.33320
H          3.13340        1.63260        2.42890
H          0.15950       -1.35840        1.51890
