18
gdb 6582	4.10219	1.83805	1.59612	1.3153	72.01	-0.2262	0.0122	0.2384	864.6361	0.153439	-347.774686	-347.76737	-347.766426	-347.805412	29.967
C          0.00380        1.53620        0.02390
C          0.02600        0.02550        0.03100
C          0.97420       -0.81500       -0.90550
C          0.60430       -1.93220        0.11110
O          1.37720       -3.08860        0.15080
C          0.65050       -0.80870        1.20940
C         -0.91870       -2.02830       -0.11920
C         -1.29220       -0.74930       -0.16910
H          1.00640        1.94890        0.17410
H         -0.37650        1.92150       -0.92900
H         -0.64010        1.92570        0.82060
H          0.66570       -0.95670       -1.94360
H          2.02350       -0.50940       -0.83940
H          1.03510       -3.65880        0.84760
H          1.67150       -0.50250        1.46050
H          0.04170       -0.94470        2.10700
H         -1.48880       -2.94160       -0.22340
H         -2.26870       -0.30810       -0.31850
