17
gdb 17438	2.69659	2.64897	1.90335	2.2913	66.94	-0.2328	0.0658	0.2985	781.5959	0.142266	-363.795869	-363.788836	-363.787891	-363.826568	28.054
C         -0.05430        1.61810       -0.08880
C          0.07070        0.11170        0.04230
N          1.10450       -0.58340       -0.80530
C          2.35160       -0.63520        0.04670
C          2.09490        0.03260        1.39650
C          0.66970       -0.56930        1.28280
O         -0.14870       -0.76060        2.37720
C          1.27140       -1.62680        0.23920
H          0.89820        2.13140        0.06520
H         -0.41140        1.87660       -1.09070
H         -0.77630        2.00380        0.63860
H         -0.88590       -0.36670       -0.19460
H          3.28790       -0.73620       -0.48520
H          2.67170       -0.47180        2.17950
H          2.19880        1.11620        1.50500
H          0.38260       -1.07510        3.11610
H          1.18220       -2.69140        0.06650
