18
gdb 19559	3.9484	2.06946	1.88028	0.1434	76.	-0.2206	0.0162	0.2368	797.3196	0.155512	-310.613799	-310.607488	-310.606544	-310.643722	26.705
C          0.01400        1.49470        0.01010
C          1.33840        0.73770       -0.00720
C          0.04590        0.00240        0.00170
C         -0.57960       -0.98380        1.02780
C         -1.77560       -1.06200        0.01400
C         -0.60000       -0.97260       -1.02260
C          0.16120       -2.26390       -0.68020
C          0.17440       -2.27120        0.65620
H         -0.26580        2.00620        0.92640
H         -0.28390        2.01620       -0.89460
H          1.91990        0.75520       -0.92370
H          1.93810        0.74520        0.89760
H         -0.71440       -0.72990        2.07940
H         -2.36850       -1.97970        0.01490
H         -2.41160       -0.17200        0.02520
H         -0.75580       -0.70720       -2.06840
H          0.58220       -2.96680       -1.38470
H          0.60920       -2.98180        1.34450
