18
gdb 1471	6.47102	1.26155	1.14167	4.0941	68.29	-0.3142	0.0351	0.3493	1053.8927	0.159135	-289.872246	-289.863729	-289.862785	-289.905125	30.173
C         -0.08890        1.54780        0.08720
C          0.00790        0.02330       -0.02270
C          0.77730       -0.47830       -1.25810
C          2.25050       -0.05290       -1.26040
C          0.64520       -2.01960       -1.34250
C          1.22460       -2.58450       -2.55920
N          1.68380       -3.01330       -3.52940
H          0.89260        2.01220        0.21920
H         -0.54530        1.98050       -0.81000
H         -0.70540        1.83510        0.94420
H          0.48240       -0.38160        0.88220
H         -1.00670       -0.39520       -0.04710
H          0.29480       -0.06190       -2.15250
H          2.77540       -0.45560       -2.13140
H          2.35060        1.03490       -1.28740
H          2.76300       -0.41480       -0.36070
H          1.13480       -2.48430       -0.47730
H         -0.41070       -2.31020       -1.29980
