16
gdb 13549	3.75519	1.3558	1.11393	1.3062	67.22	-0.2607	0.0221	0.2829	1073.4431	0.127067	-383.675298	-383.666313	-383.665369	-383.709275	31.938
C          0.13170        1.52900       -0.27390
C         -0.01030        0.06600        0.05650
O          1.18270       -0.73390        0.09340
C          0.43990       -0.57660        1.29980
C          1.10990        0.17900        2.44170
O          0.12550        0.72370        3.31830
C          2.05430       -0.68580        3.15220
C          2.77990       -1.42730        3.75930
H          0.97970        1.98780        0.23780
H          0.28140        1.65580       -1.35100
H         -0.77830        2.06920        0.00690
H         -0.83870       -0.42790       -0.45600
H         -0.08440       -1.47650        1.63000
H          1.65080        1.03570        2.02920
H         -0.15230        0.02170        3.91690
H          3.44150       -2.06910        4.28730
