18
gdb 18827	3.72075	2.35054	1.75662	0.802	79.28	-0.1974	-0.0236	0.1738	801.7687	0.154339	-310.574624	-310.56793	-310.566986	-310.605019	27.19
C         -0.21440        1.30910       -0.21650
C         -0.04860       -0.07250        0.32970
C         -1.05890       -0.96090        0.49760
C         -1.79100       -1.34880       -0.80590
C         -0.71310       -2.48940       -0.82100
C          0.70420       -2.22800       -0.15650
C          1.26690       -0.83270        0.15940
C         -0.51930       -2.39410        0.66520
H          0.26310        1.41750       -1.20020
H         -1.27010        1.58050       -0.30400
H          0.26240        2.05080        0.43830
H         -2.78490       -1.79940       -0.69940
H         -1.80900       -0.60220       -1.60630
H         -0.82410       -3.40940       -1.39150
H          1.38560       -3.06530       -0.30050
H          1.83500       -0.36640       -0.65580
H          1.94410       -0.88190        1.02490
H         -0.74260       -3.10550        1.44970
