15
gdb 7927	3.51302	1.78538	1.26183	2.6043	61.97	-0.2464	-0.0385	0.2079	926.3974	0.118592	-399.869238	-399.86162	-399.860676	-399.901717	27.747
C         -0.09890        1.59160        0.01750
C          0.02020        0.06610       -0.01370
N          0.78350       -0.45940       -1.13100
C          1.84670       -1.27360       -0.83470
O          2.58080       -1.79710       -1.64090
C          1.91200       -1.38630        0.68800
C          0.80410       -0.47870        1.19880
O          0.55760       -0.19520        2.34000
H          0.88910        2.05940       -0.02350
H         -0.68910        1.95500       -0.82900
H         -0.59330        1.89620        0.94330
H         -0.98910       -0.37240        0.02110
H          0.55310       -0.27260       -2.09500
H          1.74330       -2.42160        1.00280
H          2.89120       -1.09180        1.07510
