20
gdb 7156	3.79988	0.88204	0.74876	0.821	81.79	-0.2403	0.0492	0.2894	1585.6839	0.173278	-348.978367	-348.967682	-348.966737	-349.016214	35.88
C         -0.01000        1.48660       -0.13000
C         -0.00110       -0.01450        0.10770
O         -1.32400       -0.49130       -0.05040
C         -1.45900       -1.90760        0.03950
C         -1.48020       -2.38780        1.50050
C         -2.68380       -2.29340       -0.66160
C         -3.69300       -2.63860       -1.21900
C         -4.91300       -3.04240       -1.90250
H          0.99890        1.89610       -0.02160
H         -0.37350        1.71220       -1.13640
H         -0.66610        1.98410        0.58980
H          0.66950       -0.51560       -0.61100
H          0.38500       -0.23500        1.11560
H         -0.60160       -2.37830       -0.47220
H         -1.60110       -3.47390        1.54010
H         -0.54800       -2.12800        2.00990
H         -2.31490       -1.92220        2.03030
H         -4.69580       -3.69110       -2.75840
H         -5.58500       -3.58950       -1.23220
H         -5.45880       -2.17020       -2.27880
