14
gdb 20158	3.75694	3.16573	2.81686	2.1776	57.26	-0.2651	0.0856	0.3507	583.3254	0.110798	-382.505989	-382.501479	-382.500534	-382.534347	19.868
O         -0.05030        1.46420       -0.00240
C          1.34380        1.73150        0.04710
C          1.87870        0.99290        1.28750
C          2.45650       -0.11740        0.43580
C          1.09780       -0.28570        1.07900
C          0.06860        0.04710       -0.05310
O          0.79950       -0.16880       -1.25490
C          1.95830        0.55070       -0.85870
H          1.56900        2.77530       -0.15040
H          2.18150        1.39590        2.24450
H          3.30770       -0.76810        0.58460
H          0.90590       -0.99350        1.87160
H         -0.90030       -0.44290       -0.07170
H          2.61750        0.76070       -1.69570
