19
gdb 4127	4.19289	1.25452	1.05737	0.5905	75.11	-0.2365	0.0181	0.2545	1152.3635	0.164388	-365.018512	-365.009691	-365.008746	-365.05249	31.999
C          0.10550        1.48370        0.00780
C          0.00930       -0.01780        0.09310
N         -0.05580       -0.66250        1.19490
O         -0.02630        0.20380        2.30370
C          0.00100       -0.81290       -1.17670
C          1.33000       -0.90870       -2.00160
C          0.95590       -2.37780       -2.33540
C         -0.03870       -2.36210       -1.14380
H          0.96020        1.84710        0.58630
H          0.20570        1.81630       -1.02730
H         -0.78480        1.94770        0.44560
H         -0.08360       -0.41310        3.04050
H         -0.79110       -0.42140       -1.82830
H          1.46730       -0.21030       -2.83050
H          2.20230       -0.85360       -1.34400
H          0.44050       -2.45460       -3.29720
H          1.76010       -3.11660       -2.31440
H          0.41110       -2.73960       -0.22380
H         -1.01100       -2.84040       -1.27990
