19
gdb 10184	3.09705	1.1482	0.87847	3.4228	73.14	-0.285	0.0193	0.3043	1337.342	0.163536	-365.072606	-365.062866	-365.061922	-365.107611	33.532
C         -0.02520        1.63660       -0.01780
C          0.02770        0.10750        0.02850
C          0.66740       -0.49290       -1.22750
C          0.70320       -2.02600       -1.19380
O         -0.62200       -2.50260       -1.17800
C         -0.73960       -3.89370       -0.93580
C          1.44920       -2.56210       -2.35830
N          2.02430       -2.98630       -3.26650
H          0.97780        2.06840       -0.10570
H         -0.61220        1.98640       -0.87400
H         -0.48450        2.04250        0.88840
H          0.59500       -0.21500        0.91190
H         -0.98140       -0.30050        0.14190
H          0.11380       -0.18700       -2.12230
H          1.69410       -0.12810       -1.34590
H          1.23910       -2.36020       -0.28860
H         -0.25990       -4.48500       -1.72720
H         -0.29520       -4.17020        0.03190
H         -1.80720       -4.11980       -0.91690
