15
gdb 5246	6.99272	1.06264	0.97743	2.1594	62.98	-0.2389	0.0037	0.2426	1146.3894	0.119819	-399.824989	-399.817435	-399.816491	-399.857785	26.451
O         -0.06000        1.42940       -0.13260
C          0.04660        0.01660       -0.11340
C         -1.35990       -0.53630        0.13760
C         -1.40820       -2.02010        0.17440
C         -1.67390       -2.95260        1.12250
N         -1.56160       -4.22720        0.57630
C         -1.23700       -4.00880       -0.65380
O         -1.12130       -2.70140       -0.98590
H          0.81200        1.79630       -0.30460
H          0.42870       -0.37540       -1.06780
H          0.72340       -0.33030        0.68280
H         -1.72810       -0.15030        1.09280
H         -2.02480       -0.14930       -0.64380
H         -1.94140       -2.80020        2.15620
H         -1.05040       -4.72610       -1.43760
