18
gdb 17450	3.41574	2.04315	1.62669	2.0159	70.71	-0.2402	0.0845	0.3247	860.5724	0.15308	-347.754309	-347.746809	-347.745865	-347.785555	29.306
C         -0.07340        1.53790       -0.07870
C          0.08820        0.03430        0.02400
C          1.37410       -0.72360       -0.20200
C          2.55410       -0.00590        0.41310
O          3.07060       -0.80110        1.49340
C          1.90960        0.01290        1.74620
C          1.98060        0.97950        2.88540
C          0.69610       -0.71300        1.18870
H          0.79270        2.07470        0.31410
H         -0.20540        1.83910       -1.12380
H         -0.95710        1.87220        0.47620
H         -0.76530       -0.50550       -0.38630
H          1.44210       -1.56270       -0.88380
H          3.23770        0.70610       -0.03550
H          2.95080        1.48260        2.90110
H          1.19010        1.73260        2.81130
H          1.85570        0.45770        3.84100
H          0.19050       -1.54180        1.67070
