13
gdb 9139	4.61095	0.84964	0.74837	2.5524	63.46	-0.2851	-0.0165	0.2686	1418.6226	0.093374	-398.554942	-398.545953	-398.545009	-398.590531	29.852
O          0.43760        0.74020       -0.85850
C          0.02650        0.09430        0.33350
C         -1.35490       -0.38990        0.29160
C         -2.50470       -0.74410        0.24230
C         -3.88650       -1.22570        0.17140
O         -4.04210       -2.40240       -0.59820
C         -4.43320       -1.40240        1.54120
N         -4.86510       -1.56170        2.60030
H         -0.16980        1.46900       -1.02410
H          0.70930       -0.75150        0.46850
H          0.14790        0.74300        1.21530
H         -4.50940       -0.47450       -0.33000
H         -3.42530       -3.06260       -0.25970
