16
gdb 478	5.88257	3.5926	2.86567	0.3029	60.48	-0.243	0.0951	0.338	542.9521	0.143756	-234.474951	-234.469056	-234.468112	-234.50378	22.864
C         -0.01870        1.55090        0.03940
C          0.05150        0.05130        0.01380
C         -0.85390       -0.82910        0.83200
C          0.63540       -0.94130        1.02830
C          1.24430       -1.77850       -0.10080
C          0.64390       -0.77550       -1.14050
H          0.94270        2.00220       -0.23330
H         -0.77070        1.92690       -0.66590
H         -0.29030        1.91890        1.03460
H         -1.38990       -0.32320        1.62970
H         -1.41090       -1.64380        0.37160
H          1.09670       -0.74500        1.98970
H          2.33660       -1.77160       -0.10530
H          0.90410       -2.81800       -0.16330
H         -0.07450       -1.17650       -1.86410
H          1.42190       -0.23750       -1.68880
