15
gdb 5203	6.33619	1.17175	1.08416	1.2003	68.46	-0.2151	-0.0393	0.1758	1063.6671	0.118967	-362.698593	-362.691162	-362.690217	-362.732147	26.343
O         -0.33690        0.38010        0.76460
C         -0.00680        1.09480       -0.14190
C          1.31950        1.85850       -0.16600
N          1.36160        2.88410       -1.17750
C          1.82820        2.72440       -2.46190
C          1.58660        3.88690       -3.15560
C          0.94000        4.78500       -2.26280
C          0.80930        4.13910       -1.05590
H         -0.63970        1.25150       -1.04410
H          1.49480        2.28590        0.82620
H          2.12270        1.13520       -0.34780
H          2.29900        1.80110       -2.76140
H          1.85540        4.07590       -4.18340
H          0.61800        5.79230       -2.47730
H          0.38400        4.46080       -0.11820
