20
gdb 17679	3.83083	1.49662	1.26757	1.7252	75.13	-0.2577	0.0929	0.3506	1050.5975	0.175302	-348.984457	-348.97564	-348.974696	-349.017505	32.988
C          0.06380        1.29360       -0.33130
C          0.21040       -0.13600        0.12220
O          1.54430       -0.63950        0.30760
C          0.67450       -0.58280        1.45130
C          1.07990        0.39000        2.53800
C          0.23260       -1.92750        1.96770
C          0.31540       -3.15510        1.10220
C          1.26820       -2.98730        2.25960
H          0.72380        1.97010        0.21430
H          0.30470        1.37530       -1.39670
H         -0.97050        1.62940       -0.19770
H         -0.43670       -0.83800       -0.40840
H          1.44050        1.33520        2.13030
H          0.23350        0.59660        3.20260
H          1.87990       -0.04560        3.14550
H         -0.60400       -1.87220        2.65990
H         -0.47550       -3.89260        1.18130
H          0.73150       -3.02960        0.10940
H          2.29850       -2.75320        2.01460
H          1.14010       -3.60860        3.13890
