12
gdb 1035	8.02784	2.14145	1.6905	2.3278	58.85	-0.2311	-0.0376	0.1934	681.5415	0.092027	-323.431776	-323.426165	-323.425221	-323.461175	20.718
O         -0.08860       -0.03610       -0.00080
C         -0.02290        1.16450        0.00840
N          1.16630        1.88430        0.00050
C          2.44460        1.34010       -0.01820
C          3.33530        2.37250       -0.02030
C          2.58720        3.59940       -0.00240
C          1.26450        3.27250        0.01000
H         -0.90260        1.83310        0.02280
H          2.56470        0.27040       -0.02780
H          4.41030        2.27750       -0.03320
H          2.99210        4.59970        0.00080
H          0.37450        3.88080        0.02470
