14
gdb 16478	3.08031	2.66446	1.74093	3.511	60.87	-0.2272	-0.0029	0.2243	751.8447	0.10621	-382.486885	-382.480232	-382.479288	-382.517589	25.189
C         -0.01130        1.50570        0.04140
C         -0.02280        0.01280       -0.04740
C         -0.91120       -0.92870        0.76850
O         -1.08570       -2.15560        0.05290
C          0.34400       -2.10330       -0.21370
C          0.54980       -1.07170        0.95250
C          0.49360       -0.87150       -1.14290
O          1.04880       -0.66390       -2.18440
H          0.95070        1.90840       -0.29050
H         -0.79190        1.93600       -0.59430
H         -0.19050        1.84740        1.06590
H         -1.70140       -0.57730        1.42020
H          0.82010       -3.06490       -0.38100
H          1.26410       -0.95140        1.75320
