15
gdb 20354	6.04428	1.47035	1.3041	3.0805	68.76	-0.2387	-0.0071	0.2316	931.7265	0.120437	-362.648945	-362.642349	-362.641404	-362.680236	24.739
C         -0.13370        1.45450       -0.06140
C          1.26410        0.94880        0.12640
C          0.11540       -0.04130        0.03360
C         -0.31500       -0.79200        1.21610
C         -0.79500       -2.05720        1.39000
C         -1.01370       -2.14080        2.78940
N         -0.69840       -1.03380        3.41380
O         -0.25140       -0.17020        2.40910
H         -0.61920        1.92280        0.78660
H         -0.42160        1.84740       -1.02980
H          1.95120        0.98900       -0.71100
H          1.72030        1.07640        1.10090
H          0.03310       -0.60990       -0.88560
H         -0.96460       -2.80830        0.63730
H         -1.39200       -2.97380        3.36570
