18
gdb 18977	4.28523	2.16124	1.79277	1.2545	71.3	-0.2431	0.0978	0.3409	783.0467	0.157336	-347.757669	-347.751774	-347.750829	-347.78738	24.519
C         -0.06970        1.61340        0.01000
C          1.44070        1.26400       -0.00540
C          1.13620        0.16750        1.06110
C          2.09540       -1.01080        1.15620
O          2.09630       -1.78880       -0.02770
C          2.07430       -0.99810       -1.20290
C          1.11700        0.17900       -1.07800
C         -0.01150        0.06260        0.00120
H         -0.45380        2.08220        0.92080
H         -0.47010        2.09190       -0.88860
H          2.28530        1.95650       -0.00920
H          0.84710        0.54370        2.04790
H          3.11300       -0.64860        1.39040
H          1.79700       -1.69170        1.96050
H          3.08750       -0.63330       -1.45140
H          1.76150       -1.67040       -2.00900
H          0.81030        0.56570       -2.05540
H         -0.85030       -0.63470        0.00500
