16
gdb 5932	3.19806	1.32224	1.17855	2.4185	62.08	-0.2505	-0.0444	0.2061	1049.8235	0.125547	-420.890678	-420.881293	-420.880349	-420.925758	32.157
C          0.31190        1.62350        0.20980
C          0.05860        0.12520        0.03260
O          0.60720       -0.50220        1.19810
C         -1.43200       -0.20760       -0.15220
C         -2.27760        0.19940        1.03590
O         -3.28250        0.85890        0.95850
C          0.88510       -0.38110       -1.15650
O          0.44120       -0.91830       -2.13600
H          1.38490        1.82090        0.28460
H         -0.09680        2.18940       -0.63160
H         -0.16100        1.97510        1.13100
H          0.47070       -1.45440        1.12630
H         -1.82660        0.26350       -1.05510
H         -1.53050       -1.29440       -0.28730
H         -1.90460       -0.16750        2.01680
H          1.97900       -0.24050       -1.00310
