17
gdb 16279	3.29842	1.78493	1.43776	1.2652	76.4	-0.2221	0.0312	0.2533	928.0812	0.141524	-326.653886	-326.646113	-326.645169	-326.685567	30.061
C         -0.06080        1.56520        0.06860
C          0.04720        0.05220       -0.02890
C          1.16500       -0.57810       -0.94120
C          1.71920       -1.30350        0.28570
N          2.09170       -0.25600        1.25340
C          0.66660       -0.70230        1.17280
C         -0.01210       -1.23630        2.29980
C         -0.61460       -1.67090        3.24770
H          0.89950        1.99790        0.36050
H         -0.35690        1.99710       -0.89350
H         -0.81100        1.85780        0.81130
H         -0.92130       -0.39380       -0.27130
H          0.75930       -1.24900       -1.70080
H          1.86080        0.12600       -1.40440
H          2.16080       -2.29140        0.33750
H          2.49260       -0.71830        2.06950
H         -1.14180       -2.05890        4.08370
