15
gdb 12157	3.62613	1.59665	1.25117	3.3284	69.19	-0.2493	0.023	0.2723	963.6559	0.117416	-362.649983	-362.641772	-362.640828	-362.682939	29.062
C         -0.04610        1.41410        0.10860
N         -0.00010       -0.02220        0.02270
C         -1.06210       -1.04080        0.07110
C          0.07690       -2.11480       -0.00580
C          1.04530       -0.91150       -0.04580
O          2.23470       -0.74980       -0.11400
C         -1.88250       -1.02530        1.27310
C         -2.56200       -0.99500        2.26420
H          0.98500        1.77470        0.12640
H         -0.56090        1.85550       -0.75340
H         -0.55440        1.73670        1.02440
H         -1.70290       -1.02340       -0.81960
H          0.17080       -2.74070        0.88190
H          0.07090       -2.73300       -0.90460
H         -3.16090       -0.97680        3.14120
