15
gdb 1308	3.39434	2.71916	2.16812	2.0822	57.22	-0.2472	-0.0286	0.2186	682.4644	0.122791	-345.663386	-345.655772	-345.654828	-345.695098	27.353
C         -0.06080        1.60880        0.05830
C         -0.08410        0.08150       -0.00600
O         -1.39830       -0.38500        0.17790
C          0.73540       -0.49530       -1.21740
C          1.95750       -0.75150       -0.27840
C          0.96870       -0.60680        0.88220
O          0.86810       -1.09700        1.97280
H          0.94180        2.01160       -0.11580
H         -0.73200        2.00850       -0.70800
H         -0.41140        1.94970        1.03630
H         -1.39450       -0.94200        0.96650
H          0.28790       -1.42480       -1.57280
H          0.89380        0.18500       -2.05520
H          2.47890       -1.70820       -0.34260
H          2.69340        0.05750       -0.30530
