12
gdb 1601	3.97309	2.36945	1.54966	2.2356	51.07	-0.2641	-0.0015	0.2626	733.738	0.090402	-356.730212	-356.722687	-356.721743	-356.762044	26.165
N         -0.22320        1.55310       -0.09760
C          0.04390        0.12300        0.00310
C         -1.18420       -0.63330        0.25830
N         -2.12810       -1.28180        0.41570
C          0.84010       -0.43890       -1.22260
N          0.70680       -1.76150       -1.47270
O          1.57470        0.30910       -1.83340
H          0.62090        1.96720       -0.49150
H         -0.94930        1.70740       -0.79300
H          0.70490       -0.04010        0.86700
H         -0.01180       -2.31350       -1.03420
H          1.20650       -2.15010       -2.25680
