18
gdb 6957	2.53627	2.27668	1.66422	1.6432	67.38	-0.2385	-0.0223	0.2161	873.139	0.152327	-384.975788	-384.967493	-384.966549	-385.008222	30.884
C          0.00370        1.53080       -0.00750
C         -0.02650       -0.00660       -0.00350
C         -1.45400       -0.54540       -0.02750
O          0.68680       -0.53870       -1.12340
C          2.05030       -0.74830       -0.75460
C          2.01100       -1.20870        0.70430
C          0.74660       -0.52600        1.22480
O          0.40220       -0.39900        2.37020
H          1.02960        1.91210       -0.02190
H         -0.51240        1.90620       -0.89560
H         -0.49010        1.92050        0.88680
H         -1.99280       -0.15450       -0.89530
H         -1.45060       -1.63700       -0.08750
H         -1.97760       -0.24450        0.88360
H          2.46490       -1.48700       -1.44390
H          2.63360        0.17970       -0.85690
H          1.86370       -2.29280        0.77620
H          2.88350       -0.94600        1.30530
