15
gdb 7755	3.8677	1.79503	1.2835	2.2978	62.47	-0.2785	-0.0282	0.2503	914.3423	0.119509	-399.852229	-399.845134	-399.84419	-399.883694	26.302
C         -0.06180        1.56610       -0.00360
C          0.08260        0.04670        0.05710
C          0.69570       -0.52970       -1.22880
C          0.99760       -2.00160       -1.08350
O          0.87780       -2.84490       -1.91880
O          1.50020       -2.35620        0.15710
C          1.49660       -1.42550        1.17720
N          0.87990       -0.33110        1.22650
H          0.91690        2.03980       -0.13110
H         -0.70280        1.86300       -0.83940
H         -0.49950        1.93870        0.92550
H         -0.91750       -0.38980        0.20000
H          0.05560       -0.39540       -2.10240
H          1.64770       -0.01870       -1.42950
H          2.10270       -1.78930        2.00230
