18
gdb 9953	3.21	1.41979	1.33065	1.9116	63.56	-0.2361	0.0512	0.2873	1008.284	0.151446	-422.044159	-422.034815	-422.03387	-422.077751	34.077
C         -0.01880        1.57470        0.16850
C         -0.04470        0.06330        0.08190
C         -1.31160       -0.53900       -0.49170
O         -1.51690       -0.22390       -1.86440
C          1.23870       -0.69000       -0.23570
O          2.46050       -0.00330       -0.30130
C          0.67180       -0.74630        1.15790
O          1.37900       -0.09620        2.16500
H          0.82900        1.92530        0.75850
H          0.03830        2.03920       -0.82400
H         -0.92830        1.94330        0.65690
H         -1.26310       -1.63260       -0.44890
H         -2.17570       -0.23040        0.11860
H         -1.72420        0.71360       -1.92280
H          1.17750       -1.56210       -0.88440
H          2.42800        0.62230       -1.03210
H          0.20640       -1.66650        1.50270
H          2.22510        0.16230        1.77360
