15
gdb 15205	2.58232	1.95787	1.50866	0.8417	73.83	-0.2281	0.0147	0.2428	899.0283	0.115625	-325.420538	-325.412057	-325.411113	-325.453171	31.129
C         -0.23140        1.49070       -0.05710
N          0.03190        0.05740        0.02690
C          1.37840       -0.43130       -0.29400
C          2.44340        0.44950       -0.68080
C          3.33480        1.16650       -1.05180
C          0.85700       -0.44330        1.13300
C          1.41700        0.42590        2.12820
C          1.85540        1.13260        2.99700
H          0.60800        2.12400        0.25370
H         -0.48780        1.72960       -1.09290
H         -1.09480        1.71590        0.57500
H          1.37410       -1.38630       -0.81630
H          4.12720        1.79980       -1.36610
H          0.52230       -1.40580        1.51530
H          2.25500        1.75700        3.75740
