15
gdb 14936	4.69044	1.55732	1.21873	4.0317	64.61	-0.2554	-0.0612	0.1942	953.5675	0.119974	-399.821695	-399.81461	-399.813666	-399.853332	25.64
O         -0.92110        1.31060       -0.00470
C          0.19500        0.93070       -0.23920
C          1.43240        1.77260       -0.09550
N          2.54250        1.22780       -0.39610
C          3.75380        2.03720       -0.32880
C          3.46880        3.54270       -0.33510
C          2.33300        3.82650        0.63930
O          1.18040        3.02300        0.33650
H          0.43640       -0.09010       -0.59530
H          4.30480        1.74970        0.57730
H          4.39330        1.75410       -1.17170
H          4.35630        4.11860       -0.05520
H          3.17070        3.86210       -1.33980
H          2.63970        3.60920        1.67070
H          1.98850        4.86150        0.59370
