18
gdb 18108	3.53465	2.24321	1.70393	1.6299	71.14	-0.2427	0.0198	0.2625	812.443	0.157324	-347.824893	-347.818446	-347.817502	-347.855701	25.57
C          0.07900        1.15970        0.28200
C          1.41750        1.83960       -0.03280
C          2.25420        0.68810       -0.63520
C          3.15440       -0.08170        0.37150
C          2.50560       -1.43760        0.49550
C          1.44670       -1.57730       -0.29800
C          1.15580       -0.33040       -1.09720
O         -0.11910        0.24630       -0.78740
H          0.12360        0.63460        1.24940
H         -0.77460        1.84240        0.30020
H          1.26160        2.62480       -0.77890
H          1.88530        2.29540        0.84390
H          2.84710        1.04370       -1.47920
H          4.18550       -0.16600        0.00530
H          3.22420        0.42340        1.34390
H          2.89060       -2.20070        1.16470
H          0.82230       -2.46000       -0.37680
H          1.14500       -0.51850       -2.17630
