20
gdb 13889	3.8994	1.41002	1.33509	1.8974	70.74	-0.2494	0.0781	0.3275	1035.4721	0.177753	-386.154154	-386.145733	-386.144789	-386.187354	31.374
C         -0.20490        1.53480        0.04020
C          0.04040        0.02690       -0.04900
O          0.79470       -0.30870       -1.20470
C          0.74450       -0.51990        1.20230
C          0.87610       -2.04500        1.25690
C          2.17440       -2.23150        2.05360
C          3.01630       -1.04330        1.57080
O          2.09270       -0.01810        1.18810
H          0.73890        2.06440        0.20420
H         -0.65190        1.89680       -0.88920
H         -0.87890        1.77690        0.86930
H         -0.91950       -0.49340       -0.15690
H          1.69350       -0.01320       -1.00660
H          0.23360       -0.14400        2.10270
H          0.00980       -2.52240        1.72120
H          0.98330       -2.43030        0.23790
H          1.97910       -2.14970        3.12820
H          2.66420       -3.19150        1.87370
H          3.68380       -0.64750        2.34430
H          3.63010       -1.31730        0.70130
