19
gdb 18709	3.2379	2.14919	1.49214	1.3546	75.98	-0.2242	0.0178	0.242	895.1159	0.167939	-327.920378	-327.913191	-327.912247	-327.951389	28.761
C          0.12040        1.56130        0.03110
C          0.01900        0.03120        0.01170
C          0.58340       -0.54900       -1.30610
C          0.77590       -2.04290       -1.27100
C          1.07650       -2.69360       -0.14640
C          1.21350       -1.97160        1.14220
N          2.13690       -0.79680        1.16130
C          0.68510       -0.58310        1.22950
H          1.17030        1.87320        0.02370
H         -0.37070        2.00280       -0.84250
H         -0.34980        1.98200        0.92670
H         -1.04230       -0.25050        0.07100
H         -0.07990       -0.26950       -2.13270
H          1.54910       -0.06960       -1.51430
H          0.69200       -2.58550       -2.20880
H          1.22630       -3.76930       -0.14480
H          1.18400       -2.57880        2.04300
H          2.54550       -0.70520        2.08820
H          0.26560       -0.27080        2.18520
