17
gdb 6444	3.66127	1.4361	1.24432	3.2563	68.89	-0.2878	0.0129	0.3007	1022.3921	0.141125	-363.869053	-363.860741	-363.859797	-363.901634	30.924
C          0.10680        1.64800        0.02670
C          0.05720        0.12910        0.01220
C          1.06210       -0.64000       -0.89080
C          1.24880       -1.68550        0.24130
O          2.59140       -2.06690        0.42250
C          0.62490       -0.64820        1.23340
C          0.38880       -2.86800        0.07320
N         -0.27590       -3.80880       -0.02760
H          1.12080        2.00660        0.23640
H         -0.20180        2.06310       -0.93890
H         -0.55910        2.05900        0.79320
H         -0.96220       -0.21000       -0.19800
H          0.72950       -1.00300       -1.86390
H          2.00410       -0.09620       -1.00400
H          2.63970       -2.71340        1.13640
H          1.44210       -0.10340        1.71520
H         -0.07010       -1.01790        1.98930
