13
gdb 20991	3.49594	2.22333	1.37401	6.224	55.78	-0.2356	0.0219	0.2576	828.4924	0.096372	-431.942991	-431.935641	-431.934697	-431.974593	26.273
C         -0.08790        1.44030        0.03040
N          0.02030       -0.00260        0.04630
C          0.02360       -0.79210       -1.10170
O          0.00500       -0.43520       -2.24770
O          0.04460       -2.07600       -0.65890
N          0.06530       -2.10610        0.77190
C          0.03000       -0.85650        1.11720
N         -0.07440       -0.40740        2.41400
H          0.83110        1.91780        0.38690
H         -0.25300        1.73150       -1.00850
H         -0.93030        1.76980        0.64490
H          0.01430       -1.16410        3.08040
H          0.53670        0.36570        2.64390
