16
gdb 6821	3.12566	1.73142	1.43641	2.5216	66.83	-0.248	0.0169	0.2648	917.6823	0.127526	-383.682268	-383.673843	-383.672899	-383.714866	31.249
C         -0.16780        1.55270       -0.09140
C         -0.01580        0.04150       -0.06850
O         -1.19110       -0.62440       -0.45660
C          1.22750       -0.50080       -0.79820
O          1.92110       -0.72120        0.44840
C          0.70170       -0.53930        1.20890
C          0.85750        0.27720        2.39530
C          0.95540        0.96230        3.37890
H          0.77180        2.04450        0.17200
H         -0.47250        1.88000       -1.09020
H         -0.92230        1.87930        0.63380
H         -1.94630       -0.15770       -0.08320
H          1.02060       -1.43730       -1.33060
H          1.76790        0.19110       -1.45230
H          0.25520       -1.50960        1.46830
H          1.05340        1.56090        4.25090
