15
gdb 6688	4.5115	0.80861	0.77061	2.5281	69.87	-0.2753	0.0111	0.2863	1465.7955	0.116722	-362.642739	-362.633535	-362.632591	-362.678599	31.269
C          0.33500        0.51850       -0.86450
C         -0.02030        0.14810        0.58230
O         -0.29390        1.29940        1.37340
C         -1.12610       -0.81800        0.63190
C         -2.06000       -1.57570        0.65870
C         -3.18500       -2.50630        0.70590
C         -4.23750       -2.18710       -0.26850
N         -5.07040       -1.94280       -1.02980
H          1.15770        1.23800       -0.86090
H          0.63500       -0.36690       -1.43240
H         -0.52660        0.96850       -1.36810
H          0.85870       -0.30510        1.05620
H         -1.11170        1.69010        1.04480
H         -2.84180       -3.53150        0.51640
H         -3.63550       -2.51560        1.70680
