13
gdb 968	3.63168	3.48374	1.81545	2.2985	55.55	-0.2294	0.0104	0.2398	669.1394	0.102795	-340.670034	-340.663334	-340.66239	-340.700658	23.806
C         -0.09100        1.54390        0.15490
C          0.02220        0.06500        0.01410
C          0.03410       -0.67920       -1.12110
N         -0.05030       -0.34040       -2.46850
O          0.15760       -2.01250       -0.74340
C          0.21100       -1.96780        0.60170
N          0.13740       -0.78460        1.11540
H          0.78250        1.95590        0.67130
H         -0.17100        2.01150       -0.82880
H         -0.97200        1.81430        0.74670
H          0.77480       -0.61420       -2.99280
H         -0.86160       -0.74670       -2.92360
H          0.30880       -2.91120        1.11750
