16
gdb 21162	3.35043	1.82733	1.20088	3.4073	67.77	-0.1854	0.035	0.2204	976.0925	0.132947	-376.101693	-376.093588	-376.092643	-376.134576	29.354
C         -0.02030        1.44020        0.05300
N          0.03900       -0.00240       -0.11940
C         -1.17540       -0.69960       -0.03380
C         -1.32060       -2.08100       -0.02540
N         -0.40110       -3.14690       -0.08710
N         -2.66350       -2.31100        0.01370
N         -3.39910       -1.19350        0.03420
C         -2.49980       -0.20550        0.00300
H          0.99170        1.84920       -0.00070
H         -0.60240        1.88240       -0.76230
H         -0.47740        1.75960        1.00420
H          0.75190       -0.42060        0.46500
H          0.35400       -2.93780       -0.73170
H          0.01160       -3.36810        0.81440
H         -3.10860       -3.21350        0.01180
H         -2.83470        0.82080        0.00820
