15
gdb 7709	3.28699	2.01513	1.3082	3.3159	63.46	-0.2731	-0.0169	0.2562	894.6303	0.120334	-399.859093	-399.852133	-399.851189	-399.890811	25.838
N         -0.12120        1.32390       -0.21420
C         -0.07480        0.09460        0.05750
C         -1.27480       -0.80710       -0.01990
C         -1.25540       -1.84150        1.10740
C          0.04720       -2.63630        1.01820
C          1.28650       -1.76810        0.92060
O          2.38720       -2.12300        1.22080
O          1.13220       -0.48390        0.43670
H          0.80340        1.74820       -0.11470
H         -2.16300       -0.17480       -0.00480
H         -1.25820       -1.32490       -0.98880
H         -1.32700       -1.33860        2.07870
H         -2.11520       -2.51210        1.02990
H          0.19990       -3.30840        1.86520
H          0.04040       -3.26560        0.11800
