18
gdb 17463	4.33549	1.93329	1.65362	1.842	70.21	-0.2508	0.0834	0.3341	841.4771	0.154836	-347.79101	-347.784176	-347.783232	-347.82149	27.752
C         -0.00900        1.53430        0.01360
C         -0.05550        0.03450        0.12700
C         -1.32440       -0.72920       -0.26160
C         -1.28800       -2.05330        0.50770
C         -0.17650       -3.03950        0.26260
C         -0.06020       -2.05790        1.40460
C          0.68720       -0.77780        1.11070
O          1.15330       -0.65650       -0.24450
H          0.95820        1.91290        0.35360
H         -0.14900        1.85070       -1.02630
H         -0.79970        1.99720        0.61340
H         -2.20060       -0.14640        0.04510
H         -1.38840       -0.86250       -1.34750
H         -2.23180       -2.44590        0.86970
H         -0.37530       -4.07480        0.51870
H          0.47870       -2.89020       -0.58650
H         -0.09000       -2.40660        2.43000
H          1.34210       -0.34520        1.86320
