14
gdb 461	5.80128	3.66753	2.83902	1.4817	53.91	-0.2461	0.0209	0.267	510.4532	0.120948	-270.441325	-270.435739	-270.434794	-270.470141	21.267
O          0.09910        1.41000       -0.03560
C          0.02740       -0.00950        0.00460
C          0.61430       -0.56910        1.32690
C         -0.61250       -0.74900        2.19160
C         -1.73340       -0.71280        1.46910
C         -1.44340       -0.50260        0.00040
H         -0.38410        1.74080        0.73050
H          0.58330       -0.34330       -0.87460
H          1.12500       -1.52940        1.16850
H          1.35900        0.12190        1.73670
H         -0.56090       -0.91840        3.26150
H         -2.73600       -0.84820        1.85940
H         -2.09140        0.23330       -0.48760
H         -1.55340       -1.44290       -0.55800
