19
gdb 16774	3.97797	1.48551	1.36603	2.2412	69.97	-0.2248	0.0682	0.293	974.3062	0.167534	-365.035723	-365.028178	-365.027234	-365.067579	29.059
O          0.25520        1.12700        0.65080
C          0.01020       -0.24500        0.38600
C         -1.43230       -0.51650       -0.06380
C         -1.73770       -2.02410       -0.27960
C         -2.67060       -2.41230        0.85860
C         -2.24510       -2.12390        2.25140
N         -3.16950       -1.21480        1.55970
C         -2.51550       -0.04220        0.94920
H          0.10210        1.61650       -0.16420
H          0.70800       -0.63560       -0.37260
H          0.23830       -0.76430        1.32230
H         -1.56500        0.02190       -1.01090
H         -2.24350       -2.18530       -1.23650
H         -0.82510       -2.63100       -0.29810
H         -3.39550       -3.20060        0.67340
H         -2.68650       -2.67270        3.07910
H         -1.22270       -1.80120        2.42790
H         -2.09080        0.60970        1.71860
H         -3.29570        0.52730        0.43380
