19
gdb 7630	4.15022	1.30686	1.26536	2.8419	72.81	-0.2588	0.0298	0.2886	1065.4792	0.164859	-365.074992	-365.066481	-365.065537	-365.108123	31.546
C         -0.17080        1.63290        0.01230
C          0.06110        0.11680       -0.08420
C          1.18480       -0.32680        0.86250
C         -1.25400       -0.62200        0.14550
C         -1.29250       -2.16400        0.24160
C         -1.78070       -1.91060        1.65130
N         -2.13620       -2.63660        2.60950
O         -1.72050       -0.53600        1.54280
H          0.75350        2.18310       -0.18760
H         -0.92540        1.96930       -0.70640
H         -0.51660        1.90500        1.01480
H          0.35700       -0.12200       -1.11660
H          0.91070       -0.13520        1.90390
H          1.41980       -1.39070        0.76430
H          2.10080        0.23110        0.64690
H         -2.03160       -0.21140       -0.50740
H         -2.01390       -2.66250       -0.40760
H         -0.33250       -2.67750        0.17600
H         -2.41520       -2.07350        3.41500
