14
gdb 476	4.14245	3.72097	2.84576	1.9714	49.27	-0.2301	0.0537	0.2838	539.3304	0.118633	-307.540766	-307.533965	-307.53302	-307.570981	24.471
C         -0.04120        1.55980        0.00700
C          0.03110        0.04950        0.02710
C          1.33130       -0.68400       -0.26440
O          2.51290        0.03550       -0.44320
C          0.74210       -0.70220        1.12790
O          1.42210        0.08810        2.07610
H          0.91540        2.01120        0.27400
H         -0.30570        1.91320       -0.99470
H         -0.79570        1.93040        0.70820
H         -0.86440       -0.45110       -0.33350
H          1.30730       -1.57950       -0.87830
H          2.71310        0.43430        0.41530
H          0.28660       -1.60430        1.53120
H          2.04400       -0.48390        2.53950
