20
gdb 16368	2.56595	2.05428	1.39044	1.5274	74.85	-0.2512	0.0779	0.3291	973.2088	0.176453	-348.982999	-348.974618	-348.973674	-349.015476	32.399
C         -0.78950        1.22120       -0.01500
C          0.02340       -0.06150       -0.10940
C          1.39440       -0.01830       -0.85100
C          1.99850       -0.92090        0.26120
O          3.29130       -0.65940        0.74800
C          0.77630       -0.58210        1.13040
C          0.87500        0.09500        2.47020
C          0.26920       -1.28530        2.34800
H         -0.18590        2.04430        0.38270
H         -1.15840        1.52330       -1.00120
H         -1.66130        1.09920        0.63820
H         -0.60200       -0.86110       -0.52450
H          1.43700       -0.37870       -1.88140
H          1.83210        0.98610       -0.81150
H          2.00730       -1.97600       -0.03220
H          3.32220        0.26890        1.00450
H          1.85870        0.17170        2.92420
H          0.21420        0.92860        2.68430
H         -0.80510       -1.38080        2.47510
H          0.84120       -2.12730        2.72630
