20
gdb 6895	2.86948	1.42911	1.27722	2.1129	71.62	-0.2296	0.0654	0.295	1090.0955	0.174191	-386.124091	-386.114337	-386.113393	-386.158091	35.922
C          0.23520        1.52200        0.10050
C         -0.16370        0.05310       -0.08730
C          0.54630       -0.58250       -1.26580
C          1.90930       -1.22470       -1.11770
O          2.44940       -1.23800        0.17480
C          0.69340       -2.07210       -1.45540
C          0.15100       -3.07260       -0.46230
O          0.55950       -2.45800       -2.80330
H          1.30800        1.60800        0.29840
H          0.01060        2.11230       -0.79480
H         -0.30220        1.97270        0.94080
H          0.06550       -0.49790        0.82850
H         -1.24830       -0.02000       -0.23850
H          0.41400       -0.05330       -2.20650
H          2.62700       -1.06250       -1.92240
H          2.96930       -2.04190        0.27650
H          0.35110       -2.76770        0.56650
H         -0.92850       -3.20090       -0.58900
H          0.62200       -4.05300       -0.61540
H          1.08340       -3.25670       -2.93570
