19
gdb 10707	2.4742	2.02785	1.34349	3.386	71.7	-0.2431	0.0317	0.2748	984.151	0.164935	-365.094746	-365.085834	-365.08489	-365.128074	33.324
C          0.51460        0.02080        1.31210
C         -0.07150       -0.08210       -0.10370
C         -1.45450       -0.71520       -0.16590
C         -1.79970       -1.57730       -1.37650
C         -1.54230       -2.22740       -0.05550
C         -2.65460        0.01190        0.39240
N         -2.46610        1.31830        0.75750
O         -3.74110       -0.52810        0.51530
H          1.51690        0.45970        1.28880
H         -0.10990        0.63610        1.96600
H          0.59160       -0.97030        1.77020
H         -0.08190        0.90740       -0.58340
H          0.60280       -0.68600       -0.72200
H         -2.82660       -1.53940       -1.71910
H         -1.04850       -1.65370       -2.15530
H         -0.60830       -2.76020        0.08700
H         -2.39750       -2.61900        0.48080
H         -1.64800        1.83490        0.48850
H         -3.29410        1.83820        1.00060
