13
gdb 7879	4.0542	1.85851	1.27495	1.5197	67.38	-0.2237	-0.0554	0.1683	876.6872	0.09753	-394.846577	-394.839518	-394.838574	-394.87759	26.793
N          0.04520        1.34060       -0.10160
C         -0.08660       -0.00550       -0.04430
C         -1.13850       -0.85490       -0.02240
C         -0.63330       -2.22860       -0.01250
N         -1.33950       -3.28840        0.01210
N          0.77830       -2.12700       -0.03440
C          1.18720       -0.81390       -0.03370
O          2.31640       -0.37550       -0.01490
H          0.97510        1.69620        0.06380
H         -0.72800        1.94070        0.12780
H         -2.19430       -0.63320       -0.01790
H         -0.75840       -4.12820        0.01100
H          1.41540       -2.90530        0.00290
