22
gdb 19193	2.99214	1.93955	1.60832	0.123	81.41	-0.279	0.0931	0.372	949.3058	0.202579	-313.068756	-313.061051	-313.060107	-313.100048	31.266
C         -0.22840        1.61950        0.80780
C         -0.06200        0.13480        0.51420
C          0.95230       -0.39370       -0.55090
C          2.29680        0.17380       -0.05330
C          2.14850       -0.14510        1.47480
C          0.75820       -0.81110        1.44950
C          0.90830       -1.75950        0.21300
C         -0.21960       -2.73570       -0.10010
H          0.71880        2.12840        1.00590
H         -0.70440        2.12910       -0.03780
H         -0.87130        1.77010        1.68270
H         -1.04960       -0.29290        0.32910
H          0.74520       -0.32820       -1.62120
H          3.14900       -0.34000       -0.50780
H          2.41060        1.24230       -0.25570
H          2.92150       -0.82920        1.83700
H          2.18190        0.75050        2.10120
H          0.35490       -1.16730        2.40000
H          1.85810       -2.30870        0.19060
H         -1.21060       -2.27380       -0.09960
H         -0.07050       -3.18960       -1.08630
H         -0.23720       -3.54900        0.63420
