22
gdb 5810	3.11049	1.23269	1.10498	2.0767	74.63	-0.2523	0.0643	0.3167	1209.7325	0.196642	-387.346559	-387.336134	-387.33519	-387.381209	39.023
C          0.41030        0.86640       -0.60980
C          0.13530       -0.11770        0.52980
O          0.23490        0.55920        1.78730
C         -1.27590       -0.72600        0.50490
C         -1.43300       -2.08240       -0.20740
C         -2.88310       -2.56640       -0.05100
C         -1.04850       -2.04650       -1.69440
O         -0.55440       -2.97580        0.49180
H          1.42680        1.27180       -0.53600
H          0.31690        0.39670       -1.59250
H         -0.29320        1.70410       -0.55760
H          0.86380       -0.94010        0.49510
H          1.10350        0.97220        1.82870
H         -1.56180       -0.88020        1.54950
H         -1.98810       -0.01000        0.07840
H         -3.58760       -1.88770       -0.54300
H         -3.00830       -3.55850       -0.50110
H         -3.14790       -2.63590        1.00750
H          0.01350       -1.82290       -1.81960
H         -1.24080       -3.02160       -2.15840
H         -1.63170       -1.30080       -2.24440
H         -0.61480       -3.83870        0.06850
