18
gdb 11895	4.58114	1.46179	1.22445	2.1961	75.79	-0.2307	0.017	0.2478	1025.2001	0.153642	-347.807788	-347.80004	-347.799096	-347.840256	29.152
C          0.00890        1.50190        0.02550
C          0.01220        0.00740       -0.01030
C         -0.18810       -0.78030       -1.07040
C         -0.12350       -2.21860       -0.71490
C         -0.88040       -3.27230       -1.40970
O          0.52360       -3.12580       -1.62670
C          0.27900       -2.27750        0.76410
C          0.23620       -0.80630        1.24980
H          0.96690        1.88700        0.39780
H         -0.17180        1.93260       -0.96270
H         -0.76220        1.87890        0.70950
H         -0.38140       -0.44600       -2.08350
H         -1.18110       -4.16530       -0.86070
H         -1.51650       -3.02040       -2.25880
H         -0.37620       -2.92980        1.34670
H          1.28980       -2.68960        0.82950
H          1.15550       -0.50410        1.76700
H         -0.57960       -0.63650        1.96530
