12
gdb 4294	3.90208	2.02219	1.33194	6.2163	58.58	-0.2336	-0.0238	0.2099	827.541	0.086505	-414.731098	-414.724851	-414.723906	-414.76153	23.741
O         -0.10280        1.31870        0.01020
C          0.02710       -0.01780        0.00270
N          1.17890       -0.58300       -0.00670
C          1.26080       -1.99300       -0.01400
O          2.33250       -2.56270       -0.02410
C         -0.02690       -2.71270       -0.01080
C         -1.18770       -2.03770       -0.00070
N         -1.17670       -0.65670        0.00640
H          0.80080        1.66680        0.00680
H         -0.00630       -3.79400       -0.01670
H         -2.16750       -2.49860        0.00240
H         -2.02500       -0.11420        0.01400
