15
gdb 1611	4.81982	1.94966	1.44909	3.5222	61.23	-0.2335	-0.0683	0.1652	826.9346	0.123837	-341.835805	-341.827772	-341.826828	-341.868118	27.441
C         -0.00380        1.41790       -0.11870
N         -0.00300       -0.03590       -0.18840
C          1.22640       -0.65610        0.28600
C         -1.21990       -0.66220       -0.00450
N         -2.29140       -0.01020        0.25080
C         -1.27040       -2.15450       -0.28330
O         -2.24280       -2.81640       -0.02550
H          0.93180        1.79080       -0.54560
H         -0.85200        1.80640       -0.68220
H         -0.09330        1.78330        0.91450
H          1.43340       -0.40050        1.33670
H          1.17990       -1.74320        0.21300
H          2.07040       -0.31140       -0.31980
H         -3.07390       -0.66800        0.24950
H         -0.39530       -2.60040       -0.79710
