10
gdb 1201	11.40753	1.11134	1.01268	3.7399	66.57	-0.2572	-0.0595	0.1977	1040.5382	0.064847	-322.150234	-322.142692	-322.141748	-322.182151	25.542
N         -0.03300        1.34660        0.00880
C          0.06080       -0.01290        0.00120
O          1.11360       -0.62000       -0.01140
C         -1.22770       -0.69280        0.00990
C         -2.25840       -1.32920        0.01640
C         -3.42120       -2.03190        0.02370
C         -4.45510       -2.65560        0.03030
H          0.81840        1.88430        0.00370
H         -0.92080        1.81730        0.01940
H         -5.36400       -3.20520        0.03610
