13
gdb 981	3.93123	3.24201	1.79361	0.4919	55.52	-0.1754	0.0638	0.2392	662.2233	0.103906	-340.65899	-340.652523	-340.651579	-340.688806	24.818
N         -0.21780        1.42840       -0.04550
C         -0.01290        0.01480       -0.01230
C         -1.08100       -0.84700       -0.09250
O         -2.39910       -0.57790       -0.20660
N         -0.62710       -2.12890       -0.03960
C          0.75620       -2.11200        0.07660
C          1.16050       -0.80220        0.09560
H          0.26590        1.86130       -0.82680
H          0.12840        1.87960        0.79610
H         -2.44600        0.39010       -0.22190
H         -1.21240       -2.94420       -0.07970
H          1.31250       -3.03240        0.13400
H          2.18040       -0.45680        0.17750
