14
gdb 9445	2.74705	1.78815	1.76247	3.252	63.04	-0.2684	-0.0542	0.2142	848.049	0.106056	-378.725642	-378.717774	-378.71683	-378.757929	27.988
C         -0.27100        1.60630        0.06310
C          0.04230        0.11240        0.02270
N          1.23550       -0.27020       -0.79240
C          1.86200       -1.05560        0.30460
C          0.82300       -0.46710        1.26100
O          0.67040       -0.39230        2.43600
C         -1.14420       -0.69420       -0.27060
N         -2.05810       -1.35580       -0.52720
H          0.64400        2.16050        0.28270
H         -0.66240        1.94250       -0.90060
H         -1.01410        1.81420        0.83760
H          1.01370       -0.80620       -1.62350
H          1.76410       -2.14730        0.22790
H          2.90800       -0.80570        0.50710
