19
gdb 9807	3.31588	1.45425	1.37235	3.8553	72.51	-0.2382	0.0292	0.2673	1017.2519	0.164223	-365.077003	-365.06807	-365.067126	-365.110387	32.543
C          0.51880        0.89570        0.57020
N         -0.21990       -0.25710        0.07690
C         -1.22680       -0.78320        0.83800
O         -1.53070       -0.42070        1.95580
C         -0.02780       -0.67310       -1.29200
C         -0.76690        0.16180       -2.32410
C          1.33410       -1.22170       -1.64900
C          0.15010       -2.15090       -1.55260
H          1.59650        0.72660        0.48280
H          0.26580        1.80540        0.01220
H          0.24970        1.03770        1.61670
H         -1.74180       -1.60960        0.31430
H         -0.47300        1.21530       -2.26760
H         -0.55050       -0.18960       -3.33710
H         -1.84930        0.10470       -2.16740
H          1.73380       -0.98310       -2.62820
H          2.07580       -1.28240       -0.86090
H          0.11790       -2.82860       -0.70830
H         -0.27470       -2.55120       -2.46650
