17
gdb 14868	2.74696	1.73691	1.12666	5.0297	66.85	-0.2355	0.031	0.2665	1037.2984	0.14197	-401.00235	-400.993866	-400.992921	-401.036166	29.383
O          0.14150        1.30500        0.33000
C          0.09220       -0.06830       -0.02010
C         -1.36300       -0.49520        0.01940
C         -1.65970       -2.00940       -0.19170
C         -2.34480       -2.01970        1.20650
N         -1.94660       -0.62080        1.36180
C         -2.31610        0.27890        2.30430
O         -2.95830       -0.00470        3.29650
H          1.05980        1.55770        0.46220
H          0.48630       -0.24390       -1.03490
H          0.67030       -0.68810        0.68190
H         -1.94090        0.16990       -0.63470
H         -2.30910       -2.24120       -1.03540
H         -0.76140       -2.62720       -0.25290
H         -3.43060       -2.16070        1.19590
H         -1.91320       -2.69320        1.95290
H         -1.94860        1.29580        2.07150
