17
gdb 7746	3.44607	1.75178	1.18665	3.6804	71.56	-0.2373	0.0186	0.2559	998.1823	0.143459	-363.920051	-363.912283	-363.911339	-363.952478	28.675
C          0.10320        1.52470        0.04700
C         -0.02200        0.02880       -0.03720
C         -0.01600       -0.63000       -1.19410
C         -0.13790       -2.11640       -1.32060
N         -0.26570       -2.77880       -0.03690
C         -0.28420       -2.21570        1.20450
O         -0.39700       -2.88880        2.21300
C         -0.15690       -0.69990        1.27310
H          0.97930        1.81320        0.64190
H          0.19650        1.98050       -0.94210
H         -0.76910        1.96490        0.54690
H          0.08200       -0.09220       -2.13320
H         -1.00650       -2.36000       -1.95340
H          0.73940       -2.51130       -1.85780
H         -0.35310       -3.78470       -0.02660
H          0.69910       -0.48370        1.92670
H         -1.02920       -0.33430        1.83180
