14
gdb 5484	3.32957	2.05857	1.28226	3.5078	65.79	-0.2402	-0.0522	0.188	890.9599	0.108375	-378.781714	-378.774649	-378.773705	-378.813076	25.401
C         -0.02710        1.51520        0.05040
C         -0.01150        0.02660       -0.03240
C         -0.03060       -0.81860       -1.09960
N         -0.00370       -2.15020       -0.70120
C          0.03140       -2.12180        0.59650
N          0.02920       -0.82130        1.08530
C          0.06180       -0.46500        2.43320
O          0.09590       -1.26050        3.33360
H          0.86630        1.91720        0.54260
H         -0.05890        1.92660       -0.96100
H         -0.90220        1.89610        0.58980
H         -0.06250       -0.55040       -2.14510
H          0.05990       -2.96310        1.27040
H          0.05260        0.62820        2.57930
