16
gdb 4932	6.83292	1.24666	1.06848	0.4782	68.49	-0.2004	0.0288	0.2292	1097.1717	0.129952	-383.76212	-383.754183	-383.753239	-383.79449	28.647
C          0.00580        1.41120       -0.01190
O          0.15010        0.00590       -0.10230
C          0.66600       -0.58630        0.99810
C          1.07160       -0.04570        2.18300
O          1.52750       -1.04700        3.00330
C          1.40650       -2.22060        2.32850
C          1.84710       -3.44950        3.03980
C          0.88340       -2.00050        1.09240
H          0.97710        1.89900        0.14850
H         -0.41790        1.74720       -0.95940
H         -0.66900        1.68730        0.80990
H          1.10680        0.95040        2.58530
H          2.90720       -3.39610        3.31270
H          1.27920       -3.60220        3.96460
H          1.70150       -4.32260        2.40020
H          0.67200       -2.73410        0.33110
