14
gdb 15214	2.37704	2.21736	1.47991	5.5275	63.73	-0.2725	-0.0189	0.2536	873.6771	0.105996	-378.724447	-378.716488	-378.715544	-378.756997	27.63
C          0.15250        1.45720        0.20750
C         -0.08510       -0.01450       -0.02970
C          0.59570       -0.75790       -1.17310
C          1.49330       -0.04110       -2.04940
N          2.16780        0.54110       -2.78570
N          0.94560       -0.99830        0.20980
C          2.19560       -0.83170        0.79230
O          3.23740       -1.14300        0.27840
H          1.14990        1.76310       -0.11830
H         -0.58470        2.04720       -0.34510
H          0.04280        1.69510        1.27000
H         -1.08700       -0.36600        0.21270
H          0.06020       -1.56700       -1.66310
H          2.10650       -0.45100        1.82710
