18
gdb 16178	4.28946	1.63946	1.42253	1.2631	67.59	-0.249	0.0876	0.3366	927.7868	0.154152	-384.915483	-384.907896	-384.906952	-384.947288	28.573
C         -0.31370        1.31280       -0.09160
O          0.19860        0.00380        0.09120
C          0.79130       -0.52850       -1.04370
C         -0.04550       -1.07230       -2.17430
C          0.75980       -2.00930       -1.29370
C          2.14710       -2.37030       -1.78400
O          2.73340       -1.13830       -2.21030
C          2.20630       -0.08940       -1.40770
H          0.48150        2.04070       -0.30590
H         -1.04730        1.34700       -0.90880
H         -0.80400        1.59450        0.84300
H         -1.11840       -1.07950       -2.01750
H          0.27590       -0.90700       -3.19830
H          0.23850       -2.66870       -0.61090
H          2.73050       -2.82790       -0.96890
H          2.16500       -3.04720       -2.64440
H          2.26950        0.83000       -1.99900
H          2.77860        0.04930       -0.47550
