18
gdb 18571	3.52211	2.04453	1.68903	1.3703	73.78	-0.2255	0.0097	0.2352	843.9188	0.154693	-347.777688	-347.770537	-347.769593	-347.808814	27.74
C         -0.00770        1.53920        0.01790
C          0.01060        0.01910       -0.02060
C          1.21060       -0.60080       -0.85070
C          1.90990       -0.71890        0.48500
C          2.90720       -0.21110        1.19920
C          2.36370        0.08760        2.59010
O          0.92780        0.02630        2.46390
C          0.64020       -0.66500        1.26520
H          0.97980        1.93840        0.27030
H         -0.30290        1.95070       -0.95270
H         -0.71280        1.90060        0.77220
H         -0.97150       -0.37810       -0.29290
H          0.93780       -1.55950       -1.30120
H          1.68280        0.03010       -1.60710
H          3.89140        0.09800        0.87070
H          2.70010       -0.62400        3.36150
H          2.64460        1.09410        2.92630
H          0.14280       -1.62150        1.47990
