12
gdb 11191	4.41269	1.58438	1.37726	4.9646	56.08	-0.2942	-0.0002	0.294	867.9362	0.083689	-418.484351	-418.477512	-418.476567	-418.516061	24.299
O          0.05940        0.03880       -0.11170
C          0.00910        1.22260       -0.04750
O         -1.11950        1.96380       -0.19230
C         -0.84810        3.33240        0.09430
C          0.69960        3.41060        0.04310
O          1.07940        2.03150        0.19100
C          1.22040        3.96920       -1.19820
C          1.63090        4.44810       -2.21990
H         -1.32850        3.95890       -0.65700
H         -1.23210        3.57890        1.08920
H          1.10360        3.95440        0.90100
H          2.00250        4.86580       -3.12370
