16
gdb 5638	3.38015	1.93066	1.35383	2.5439	65.93	-0.1999	0.0505	0.2504	914.726	0.132039	-379.96701	-379.959351	-379.958407	-379.999509	28.137
C         -0.13960        1.55770        0.00360
C          0.02850        0.03650        0.01040
N          0.68350       -0.46860       -1.18700
C          0.08740       -0.86050       -2.38460
C          1.11390       -1.19740       -3.21580
N          2.33570       -1.02320       -2.58490
C          2.02000       -0.58800       -1.39450
O          2.87520       -0.26460       -0.40410
H          0.83490        2.05110       -0.04500
H         -0.73320        1.88150       -0.85620
H         -0.64660        1.88590        0.91620
H          0.62580       -0.27550        0.87130
H         -0.94350       -0.45960        0.08990
H         -0.98370       -0.86480       -2.49990
H          1.05770       -1.56070       -4.23020
H          3.75880       -0.44550       -0.74790
