17
gdb 16820	3.47465	2.05247	1.48239	3.3392	69.74	-0.251	0.0279	0.2789	874.0417	0.14377	-363.879313	-363.872278	-363.871334	-363.91036	27.451
C          0.12170        1.54790       -0.08120
C         -0.00530        0.04360        0.09450
O          0.50620       -0.61700       -1.08750
C          1.14280       -1.78980       -0.76270
N          1.41110       -2.71290       -1.58190
C          1.46400       -1.78560        0.68820
C          2.25550       -0.57640        1.15240
C          0.76020       -0.57450        1.25650
H          1.17030        1.84800       -0.15530
H         -0.39700        1.87140       -0.98770
H         -0.32710        2.06270        0.77400
H         -1.06730       -0.22470        0.18550
H          1.04800       -2.48090       -2.50800
H          1.56370       -2.73360        1.19740
H          2.81670       -0.69510        2.07190
H          2.74110        0.03810        0.40180
H          0.28520       -0.59390        2.22960
