22
gdb 12282	3.67982	1.27379	1.07129	1.2657	78.1	-0.2506	0.0743	0.3249	1194.4219	0.199357	-350.200902	-350.191485	-350.19054	-350.234673	35.146
C         -0.03110        1.58200       -0.12970
C          0.01830        0.06430        0.07960
C         -1.36060       -0.58250        0.02990
C         -2.13590       -0.62200       -1.31940
C         -2.67410       -2.01580       -0.90450
O         -2.72390       -3.05090       -1.86050
C         -1.51570       -2.14020        0.12250
C         -0.33060       -2.96400       -0.37800
H          0.96960        2.02330       -0.08640
H         -0.46370        1.83460       -1.10390
H         -0.64330        2.06790        0.63840
H          0.66680       -0.38690       -0.68080
H          0.48610       -0.15460        1.04900
H         -1.99430       -0.11900        0.79610
H         -2.85880        0.17020       -1.53120
H         -1.45250       -0.71840       -2.16970
H         -3.63830       -1.91710       -0.38430
H         -3.42750       -2.85010       -2.48550
H         -1.81850       -2.51120        1.10680
H          0.00900       -2.64570       -1.36750
H          0.51570       -2.88770        0.31240
H         -0.61080       -4.01780       -0.45890
