12
gdb 3698	7.3446	2.16655	1.69055	1.6812	51.28	-0.2365	0.0333	0.2697	694.5726	0.091918	-356.733974	-356.727706	-356.726762	-356.763948	22.679
C         -0.00440        1.44280        0.02180
C          0.00700       -0.04760        0.01260
N         -0.14030       -0.75020       -1.09560
N         -0.06520       -2.03990       -0.63370
C          0.11920       -2.02510        0.69620
O          0.22570       -3.16020        1.39420
N          0.17210       -0.79690        1.15470
H          0.94060        1.83520        0.41100
H         -0.15660        1.82080       -0.99040
H         -0.80310        1.82010        0.66820
H         -0.14590       -2.82230       -1.25980
H          0.35160       -2.90590        2.31730
