13
gdb 17145	4.34496	1.99066	1.60911	1.3766	65.	-0.2439	0.0115	0.2554	775.6604	0.094574	-361.301587	-361.295384	-361.29444	-361.331775	24.494
C         -0.02250       -1.14870        0.03870
C         -0.02990        0.05390        0.05270
C         -0.04750        1.48070        0.05030
N         -0.69700        2.33410        1.10770
C         -0.15690        3.34800        0.14890
C          1.12920        2.51410       -0.11400
O          1.03470        2.58800       -1.56010
C         -0.35010        2.48370       -1.13910
H         -0.01060       -2.21080        0.03050
H         -1.71500        2.27120        1.02750
H         -0.25750        4.42410        0.27930
H          2.10620        2.53330        0.36480
H         -1.13740        2.46430       -1.89400
