11
gdb 23902	4.53981	1.15795	1.13625	3.3312	41.7	-0.2971	-0.0116	0.2855	988.9533	0.067219	-566.060538	-566.052982	-566.052038	-566.093713	25.231
F         -0.11330        0.14740        0.55990
C         -0.04990        1.43040        0.17620
F          1.22900        1.73200       -0.04200
F         -0.71700        1.55580       -0.97850
C         -0.67730        2.33870        1.22840
O         -0.00070        2.20540        2.46400
C         -0.48270        1.28610        3.34220
O          0.05610        1.05800        4.37760
H         -0.57940        3.37620        0.90510
H         -1.74030        2.08510        1.30980
H         -1.41580        0.80770        2.99120
