21
gdb 6714	4.4899	0.8364	0.75857	3.695	76.87	-0.2491	0.0345	0.2836	1540.303	0.1876	-366.301438	-366.291457	-366.290513	-366.337516	35.037
C         -0.38360        1.45220        0.01630
C          0.05980       -0.01770       -0.01530
C          1.06510       -0.25510       -1.15040
C          0.65030       -0.48050        1.32870
C         -0.34910       -0.46940        2.49160
N          0.22050       -1.00120        3.72040
C          0.39620       -0.25880        4.84590
O          0.07760        0.90390        4.98010
H          0.46430        2.11010        0.24160
H         -0.79010        1.75630       -0.95380
H         -1.15600        1.63730        0.76830
H         -0.82800       -0.63500       -0.21900
H          1.97610        0.33520       -0.99590
H          1.35810       -1.30860       -1.21280
H          0.64380        0.03430       -2.11860
H          1.04060       -1.50100        1.20950
H          1.51010        0.14940        1.59260
H         -0.67020        0.54560        2.73140
H         -1.24350       -1.04700        2.22120
H          0.55230       -1.95290        3.72830
H          0.87260       -0.85020        5.65360
