18
gdb 12078	3.52683	1.75818	1.55915	2.7186	67.33	-0.2484	0.0823	0.3308	902.7842	0.151676	-384.887522	-384.879441	-384.878497	-384.919657	30.4
C          0.08760        1.34330       -0.06180
O         -0.02200       -0.04650        0.15420
C         -1.31740       -0.58240        0.05130
C         -2.26320       -0.07690        1.14060
C         -1.98960       -0.60030       -1.38710
C         -1.98280       -2.12990       -1.29690
O         -0.61320       -2.52580       -1.18840
C         -1.28730       -2.12030        0.00060
H          1.15520        1.57500       -0.08280
H         -0.35500        1.64660       -1.02210
H         -0.38080        1.93540        0.73730
H         -2.49610        0.98440        1.01360
H         -3.20830       -0.62790        1.11750
H         -1.80680       -0.21540        2.12600
H         -2.98230       -0.14450       -1.40380
H         -1.37870       -0.20590       -2.20130
H         -2.68220       -2.84750       -1.70890
H         -1.30360       -2.81540        0.83320
