14
gdb 9450	2.91457	1.78889	1.69069	1.1578	64.69	-0.2532	0.0035	0.2567	851.9398	0.106289	-378.667638	-378.65973	-378.658786	-378.699783	28.975
N          0.06780        1.49520        0.09870
C          0.03010        0.04270        0.01450
C         -1.39680       -0.56530       -0.14960
O         -1.00770       -1.17430       -1.41700
C          0.25130       -0.62020       -1.36510
N          1.19210       -0.61700       -2.18930
C          0.82520       -0.55630        1.07510
C          1.48370       -1.05840        1.94490
H          1.03240        1.79950        0.19070
H         -0.28130        1.89710       -0.76770
H         -1.69320       -1.31700        0.58240
H         -2.18120        0.18210       -0.29150
H          0.95810       -1.13470       -3.03820
H          2.07140       -1.50160        2.71070
