15
gdb 20605	3.30195	2.04895	1.27846	3.7926	64.66	-0.203	0.0324	0.2354	911.8096	0.119452	-395.984621	-395.976483	-395.975539	-396.01682	29.862
C         -0.07540        1.56160        0.05430
C         -0.01830        0.06800        0.00960
C         -0.03020       -0.77000       -1.06970
N         -0.11710       -0.53510       -2.42590
O         -0.02220       -2.05370       -0.69460
N          0.00360       -2.11350        0.72440
C         -0.00230       -0.85300        1.10130
N         -0.06840       -0.51480        2.44590
H          0.90650        2.02790        0.21280
H         -0.48170        1.96890       -0.87750
H         -0.73000        1.90170        0.86440
H          0.35780        0.30030       -2.73540
H          0.12950       -1.33990       -2.98550
H          0.10510       -1.30860        3.04930
H          0.51610        0.27020        2.69830
