15
gdb 10437	2.80116	1.72804	1.2592	4.076	71.16	-0.259	0.0243	0.2833	974.0395	0.117444	-325.494485	-325.486399	-325.485455	-325.527167	29.655
C          0.33970       -1.25690       -0.11310
C          0.19450       -0.06420       -0.06850
C          0.00750        1.36100       -0.03960
C         -1.09810        1.88690       -0.96000
C         -2.43630        1.45200       -0.55480
N         -3.49360        1.12000       -0.22890
C          0.24950        2.09690        1.26830
C          1.23410        2.24300        0.14510
H          0.46130       -2.31150       -0.14180
H         -1.08120        2.98220       -0.96690
H         -0.91800        1.55600       -1.98860
H         -0.40860        2.92950        1.49220
H          0.52990        1.49880        2.12620
H          2.18990        1.74080        0.22950
H          1.26090        3.17880       -0.40290
