15
gdb 18202	4.40188	1.6789	1.39311	5.0854	64.46	-0.2806	0.0323	0.3128	876.2305	0.120743	-362.672407	-362.665775	-362.664831	-362.703341	25.089
N         -0.03890       -1.15280       -0.12400
C         -0.02550        0.00130       -0.06550
C         -0.01340        1.46050        0.00200
C         -0.66110        2.03030        1.30020
C          0.00770        3.40860        1.50720
C          1.38100        3.24440        0.88760
O          2.03650        2.02290        1.26460
C          1.38570        2.07810       -0.00210
H         -0.54290        1.83900       -0.88230
H         -1.74760        2.08690        1.21870
H         -0.41930        1.36930        2.13300
H         -0.52990        4.20250        0.97470
H          0.05000        3.69010        2.56320
H          2.03700        4.09690        0.73420
H          2.02290        1.97700       -0.87590
