14
gdb 9203	7.41332	0.88769	0.80064	2.8035	61.27	-0.2722	0.0101	0.2822	1332.95	0.103469	-419.655085	-419.646006	-419.645062	-419.690187	30.316
O          0.06530        1.33690        0.00770
C         -0.04910       -0.06170        0.00270
C         -1.52360       -0.42930        0.01450
O         -2.45040        0.33200        0.02740
O         -1.64110       -1.77660        0.00840
C         -3.00020       -2.25980        0.01880
C         -2.98060       -3.71200        0.01010
C         -3.00090       -4.91220        0.00360
H          1.00130        1.55670       -0.00050
H          0.40030       -0.52990       -0.88710
H          0.41620       -0.53750        0.88030
H         -3.51320       -1.87390        0.90640
H         -3.53040       -1.86370       -0.85400
H         -3.01660       -5.97420       -0.00160
