17
gdb 8919	3.65373	1.25329	0.99407	3.967	65.19	-0.2797	0.0095	0.2892	1163.0035	0.139777	-401.005303	-400.995805	-400.994861	-401.039565	33.422
C         -0.02330        1.57620        0.07210
C         -0.00200        0.04760        0.00120
C          0.71770       -0.47810       -1.24200
O          2.08020       -0.09640       -1.29530
C          0.59100       -2.02130       -1.35130
O         -0.75300       -2.46290       -1.39590
C          1.35560       -2.52800       -2.50780
N          1.89690       -2.93720       -3.44290
H          0.99000        1.98430        0.02770
H         -0.58830        2.00040       -0.76480
H         -0.49210        1.91850        0.99890
H          0.50010       -0.36490        0.89000
H         -1.01880       -0.35710        0.01150
H          0.26540       -0.04250       -2.14300
H          2.49460       -0.33190       -0.45690
H          1.01610       -2.46760       -0.44310
H         -1.12040       -2.22810       -2.25600
