18
gdb 6749	6.89153	0.6685	0.61868	3.5253	80.43	-0.2516	-0.0432	0.2084	1816.3833	0.150648	-347.807328	-347.797322	-347.796378	-347.844207	33.454
C         -0.01690        1.56860        0.00630
C         -0.00080        0.03910        0.00600
C          0.70800       -0.53540       -1.23800
C          0.74050       -1.99040       -1.26870
C          0.74780       -3.19830       -1.25940
C          0.76020       -4.64830       -1.25470
C          1.43850       -5.29690       -2.44560
O          0.25940       -5.28950       -0.35470
H          0.99960        1.97770       -0.00250
H         -0.54000        1.96170       -0.87260
H         -0.52320        1.95550        0.89520
H          0.50310       -0.33550        0.90340
H         -1.02360       -0.35130        0.04080
H          0.21280       -0.16930       -2.14780
H          1.73700       -0.15350       -1.28660
H          2.48150       -4.96820       -2.50890
H          1.39340       -6.38250       -2.34640
H          0.94850       -4.98360       -3.37380
