14
gdb 4046	6.17811	1.2822	1.07599	3.3688	61.51	-0.2502	-0.011	0.2392	1012.9119	0.107587	-415.863473	-415.856091	-415.855147	-415.895605	26.957
O         -0.18390        1.33820        0.00790
N          0.01030       -0.05350        0.00260
C         -1.10300       -0.66460        0.00850
C         -2.48080       -0.02860        0.01990
N         -3.35300       -1.18510        0.02320
C         -2.74380       -2.41180        0.01680
O         -3.30420       -3.48360        0.01880
C         -1.22890       -2.16410        0.00510
H          0.71940        1.67300        0.00280
H         -2.60890        0.60770        0.90550
H         -2.62150        0.61210       -0.86060
H         -4.35840       -1.12240        0.03200
H         -0.78470       -2.62910       -0.88000
H         -0.77010       -2.63450        0.87990
