20
gdb 17398	4.01139	1.54499	1.49456	0.1814	79.17	-0.2357	0.0994	0.3351	969.9671	0.177354	-311.827924	-311.820274	-311.81933	-311.8595	30.338
C         -0.11800        1.49870       -0.00010
C         -0.00890       -0.00950        0.04580
C          1.33160       -0.68520       -0.16780
C          0.68330       -0.70620        1.18510
C          1.27700       -0.11030        2.48350
C          0.80440       -1.36950        3.22790
C         -0.67860       -1.55760        3.06590
C          0.23070       -1.94770        1.93060
H          0.76690        1.97270        0.43750
H         -0.20920        1.85980       -1.03080
H         -0.99240        1.85570        0.55610
H         -0.86750       -0.53610       -0.36620
H          1.36270       -1.60840       -0.73860
H          2.20180       -0.04890       -0.30600
H          2.36600       -0.02230        2.44020
H          0.86050        0.83970        2.83760
H          1.36170       -1.87780        4.00480
H         -1.10470       -2.38410        3.62640
H         -1.33730       -0.69730        2.96880
H          0.28200       -2.96190        1.55160
