16
gdb 12329	2.96792	2.26055	1.37595	4.0563	66.81	-0.2606	0.0033	0.2639	889.1337	0.13091	-383.784211	-383.776637	-383.775693	-383.817353	27.375
C         -0.25440        1.52310        0.00820
C          0.14040        0.03170       -0.00520
C          0.87480       -0.35090       -1.25640
C          2.03970       -0.98330       -1.23510
C          2.71490       -1.38050        0.03360
O          2.05670       -0.97720        1.23820
C          0.87970       -0.31230        1.28810
O          0.43950       -0.01250        2.36550
H          0.63260        2.16120       -0.05290
H         -0.89640        1.75110       -0.84790
H         -0.79030        1.75810        0.92880
H         -0.79480       -0.54540        0.04970
H          0.40770       -0.07830       -2.19950
H          2.56190       -1.25090       -2.14920
H          2.82750       -2.47240        0.08510
H          3.72920       -0.96140        0.07870
