15
gdb 2113	4.75521	2.43239	1.74628	1.481	52.73	-0.254	0.0609	0.3149	703.2478	0.126632	-382.781841	-382.77543	-382.774486	-382.811922	24.08
O         -0.07390        1.41740        0.03170
C          0.02050        0.00410        0.00350
C          0.74230       -0.54790        1.24180
O          0.64050       -1.96360        1.28460
C         -0.70420       -2.36800        1.27300
O         -1.38360       -1.96300        0.11490
C         -1.40670       -0.54800       -0.00230
H          0.80230        1.78450       -0.12030
H          0.53640       -0.35350       -0.89940
H          1.80970       -0.30540        1.23050
H          0.29240       -0.09330        2.14040
H         -0.70990       -3.45940        1.28300
H         -1.22020       -1.96920        2.16820
H         -1.96610       -0.09330        0.83220
H         -1.92140       -0.30670       -0.93480
