17
gdb 9527	2.86786	1.82726	1.53646	1.2683	64.97	-0.2671	0.0176	0.2847	913.5902	0.141004	-400.998321	-400.989814	-400.98887	-401.031225	30.831
C          0.12300        1.59540       -0.02210
C          0.07290        0.06470       -0.01030
C          0.70030       -0.56440       -1.25560
O          2.05850       -0.20740       -1.41660
C          0.47000       -2.08250       -1.43770
O         -0.35740       -1.82100       -2.62150
C         -0.11780       -0.47140       -2.54070
N         -0.43000        0.47810       -3.29880
H          1.15870        1.94810       -0.03920
H         -0.39260        1.99870       -0.89850
H         -0.35080        2.00480        0.87440
H          0.61070       -0.32470        0.86310
H         -0.96540       -0.27900        0.07270
H          2.08090        0.62790       -1.89730
H          1.36910       -2.64100       -1.70250
H         -0.10740       -2.59260       -0.66390
H         -0.95400        0.15940       -4.11580
