15
gdb 19992	3.59688	1.69245	1.33396	5.5222	65.63	-0.2823	0.0305	0.3128	916.8836	0.118999	-362.637192	-362.629822	-362.628878	-362.669337	26.714
N          0.10140       -1.16290        0.34220
C          0.08890       -0.01030        0.24620
C          0.03800        1.41780        0.09840
C          0.66060        2.32620        1.14750
C          1.30080        2.22090       -0.20110
C          2.62470        1.53570       -0.35300
C          3.80970        1.99960        0.38260
O          3.11460        0.81380        0.77370
H         -0.87450        1.76920       -0.37170
H          0.11300        3.22400        1.40740
H          1.17600        1.83280        1.96260
H          1.14920        3.04180       -0.89680
H          2.78040        1.02920       -1.30600
H          4.80200        1.84130       -0.03560
H          3.71510        2.84130        1.06680
