13
gdb 18824	4.50187	2.42362	1.98411	4.8286	55.87	-0.26	0.0054	0.2654	669.1361	0.097732	-398.575776	-398.570441	-398.569497	-398.605138	21.273
O         -0.01600       -0.01950        0.06210
C          0.01170        1.16710        0.00810
O         -1.10750        1.95770        0.15280
C         -0.68930        3.29900       -0.01190
C          0.47860        3.82780        0.81690
C          1.32000        2.65010        1.27760
N          1.18370        2.01640       -0.11640
C          0.65970        3.32920       -0.61310
H         -1.48840        3.96640       -0.30180
H          0.48830        4.83930        1.20330
H          2.36790        2.90720        1.43930
H          0.95910        2.02800        2.10260
H          1.00300        3.77470       -1.53700
