16
gdb 20952	7.35129	1.12603	0.98858	1.2881	67.39	-0.2075	0.025	0.2325	1157.2322	0.131937	-379.929972	-379.922335	-379.921391	-379.962502	27.598
C         -0.06260        1.53520        0.01110
C         -0.00160        0.01890        0.00290
O         -1.33700       -0.47390        0.01060
C         -1.46820       -1.82270        0.00470
C         -2.68060       -2.48770        0.01060
N         -2.36910       -3.81070        0.00150
N         -1.05310       -4.05440       -0.00990
C         -0.48860       -2.84440       -0.00800
H          0.94850        1.95270        0.00530
H         -0.59590        1.90370       -0.86960
H         -0.58210        1.89470        0.90360
H          0.52420       -0.34850       -0.89060
H          0.53790       -0.35760        0.88440
H         -3.69390       -2.12310        0.02020
H         -3.00810       -4.58660        0.00240
H          0.58620       -2.75540       -0.01580
