17
gdb 19368	4.4111	1.69959	1.52516	2.3806	67.76	-0.2205	0.0696	0.29	884.2778	0.141355	-363.75257	-363.745267	-363.744323	-363.784085	28.045
C          0.02730        1.34160        0.22830
O         -0.04450       -0.01000       -0.20190
C         -1.30200       -0.54870       -0.08310
C         -1.88430       -1.05330        1.20980
C         -1.70210       -1.98610        0.02580
N         -2.69150       -1.87770       -1.12430
C         -3.72160       -0.85700       -0.84030
C         -2.36140       -0.41150       -1.20640
H          1.06100        1.66450        0.08940
H         -0.63290        1.99090       -0.36360
H         -0.24550        1.43800        1.28810
H         -1.11940       -1.22520        1.96210
H         -2.84180       -0.75300        1.62150
H         -1.11870       -2.89530        0.08530
H         -4.47600       -0.82280       -1.62210
H         -4.12160       -0.72660        0.15840
H         -2.11330        0.03930       -2.16260
