16
gdb 1988	6.47582	1.54091	1.31938	3.8081	60.83	-0.236	0.0379	0.2738	899.1938	0.136643	-325.800699	-325.792947	-325.792003	-325.833231	27.748
N          0.28690        0.15990        0.99930
C         -0.00100        0.06640       -0.33090
O          0.43610        0.84770       -1.15290
C         -0.93880       -1.08030       -0.72420
C         -0.97330       -2.28050        0.19760
C         -1.90920       -2.31860        1.39060
C         -2.16440       -3.20120        0.19450
H          0.85930        0.92710        1.31000
H         -0.10690       -0.47270        1.67300
H         -1.94580       -0.65000       -0.80860
H         -0.64820       -1.37010       -1.73850
H         -0.00990       -2.76280        0.34190
H         -1.56710       -2.78570        2.30800
H         -2.57350       -1.47350        1.54280
H         -2.99810       -2.94620       -0.45140
H         -1.99180       -4.26650        0.29740
