12
gdb 21609	4.00006	2.0575	1.35916	3.8341	61.84	-0.2451	-0.052	0.1932	822.9959	0.085252	-410.832644	-410.825953	-410.825009	-410.863524	24.841
N          0.00410        1.34070        0.11450
C         -0.06170       -0.00830        0.04120
N         -1.18490       -0.63990        0.02430
C         -1.11900       -2.02640       -0.00180
N         -2.11610       -2.82720       -0.01490
C          0.23180       -2.60510       -0.02110
N          1.32770       -1.94920       -0.01440
O          1.18650       -0.53940        0.01990
H          0.87710        1.79590       -0.09090
H         -0.85380        1.84340       -0.03790
H         -2.98140       -2.28140        0.00010
H          0.34080       -3.68500       -0.04630
