15
gdb 2485	4.97197	2.70748	2.50032	2.0761	55.65	-0.2442	0.0826	0.3268	603.0496	0.1273	-345.629039	-345.623516	-345.622572	-345.658078	22.389
O          0.05610        1.36030       -0.04590
C          0.03160       -0.04830       -0.03390
C          0.51600       -0.68120        1.31760
C         -0.83640       -1.28030        1.74380
C         -1.29520       -2.04710        0.48270
C         -1.41580       -0.58700        0.01020
O         -1.78020       -0.20990        1.38300
H         -0.54650        1.63200        0.65960
H          0.59980       -0.38150       -0.90540
H          1.29840       -1.43510        1.19830
H          0.87200        0.09390        1.99960
H         -0.96490       -1.65480        2.75880
H         -0.58880       -2.71440       -0.01790
H         -2.27060       -2.51700        0.61160
H         -2.11440       -0.23840       -0.74990
