16
gdb 13839	4.52961	1.64026	1.22867	3.7411	66.67	-0.2276	0.0122	0.2398	945.0151	0.132388	-379.968868	-379.961403	-379.960458	-380.000877	27.713
N         -0.08060        1.33300        0.08770
C         -0.00340       -0.05390       -0.02230
O          1.05600       -0.65640        0.02990
N         -1.20900       -0.69090       -0.14830
C         -2.52480       -0.08090        0.03490
C         -3.42280       -1.28390        0.15060
C         -2.72990       -2.41490        0.06000
C         -1.26240       -2.15410       -0.12830
H          0.82250        1.76580       -0.03570
H         -0.82830        1.80650       -0.39690
H         -2.55570        0.55620        0.93190
H         -2.81120        0.55700       -0.81890
H         -4.49230       -1.19070        0.28880
H         -3.13480       -3.41760        0.11020
H         -0.87180       -2.58540       -1.06080
H         -0.64210       -2.55880        0.68240
