16
gdb 2997	7.10769	1.56651	1.4399	3.3812	63.13	-0.2445	0.0356	0.2801	884.3761	0.136938	-325.801512	-325.793735	-325.792791	-325.833888	27.203
C          0.03000        1.45190        0.09250
N          0.04790        0.00710       -0.01350
C          0.37960       -0.64260       -1.16820
O          0.68440       -0.05680       -2.19650
C          0.34200       -2.13650       -1.08190
C         -0.07850       -2.88430       -2.33320
C          1.35620       -2.89620       -1.91610
H          0.31750        1.84960       -0.88150
H         -0.96870        1.82300        0.34980
H          0.74010        1.80770        0.84790
H         -0.19150       -0.54110        0.79530
H          0.06050       -2.56880       -0.12680
H         -0.67120       -3.78220       -2.20150
H         -0.34300       -2.26490       -3.18190
H          2.04340       -2.28400       -2.48790
H          1.77280       -3.80240       -1.49180
