14
gdb 2658	7.75423	0.98287	0.93213	4.0738	66.07	-0.2682	0.0213	0.2895	1223.1643	0.112252	-287.43174	-287.423583	-287.422639	-287.46654	27.03
C         -0.43770        1.40160        0.22130
C          0.39530        0.16710       -0.16900
C          1.07110       -0.44990        0.96720
C          1.61640       -0.94330        1.91890
C          2.28600       -1.54960        3.06690
C          1.44680       -2.52620        3.77540
N          0.79740       -3.29540        4.34100
H          0.19510        2.17280        0.66860
H         -0.92460        1.82450       -0.66210
H         -1.21040        1.13500        0.94710
H         -0.25160       -0.57880       -0.64770
H          1.14160        0.44750       -0.92300
H          3.20750       -2.05750        2.75370
H          2.59300       -0.78020        3.78730
