13
gdb 9458	2.93785	1.81049	1.66645	2.5121	61.09	-0.2446	0.0026	0.2472	836.6104	0.093604	-398.572233	-398.564276	-398.563332	-398.604468	28.651
O         -0.03950        1.42080        0.10340
C          0.02080        0.01210        0.07490
C         -1.40880       -0.60470       -0.05180
N         -1.00230       -1.12740       -1.36100
C          0.24570       -0.56930       -1.37800
O          1.12550       -0.50540       -2.19000
C          0.88050       -0.55130        1.10220
C          1.62230       -1.00740        1.93090
H          0.84800        1.75010       -0.08330
H         -1.65720       -1.37130        0.68500
H         -2.18120        0.16780       -0.09040
H         -1.53360       -1.57440       -2.09340
H          2.27610       -1.41020        2.66490
