14
gdb 18653	3.42902	2.31058	1.5567	3.9274	64.02	-0.2466	-0.0586	0.188	790.5054	0.108397	-382.552753	-382.546475	-382.54553	-382.583191	24.071
O          0.04380        0.05690        0.50490
C         -0.01980        1.20680        0.11680
C         -1.29850        1.89800       -0.13760
C         -1.37800        3.03370       -0.84110
C         -0.19920        3.74700       -1.43750
C          1.13590        3.26020       -0.92190
O          1.30430        3.28120        0.48710
C          1.23140        1.99810       -0.15710
H         -2.18560        1.39630        0.23520
H         -2.35190        3.47960       -1.02950
H         -0.22630        3.64040       -2.53160
H         -0.28580        4.82580       -1.24870
H          2.01200        3.58270       -1.48450
H          2.15130        1.41780       -0.14480
