12
gdb 23804	3.40013	2.31745	1.37814	2.4367	61.96	-0.2186	-0.0539	0.1647	797.8028	0.085679	-418.810377	-418.804231	-418.803287	-418.840717	23.409
F          0.01800        0.02320        0.00370
C         -0.03390        1.34030        0.01080
C         -1.20540        2.00790        0.02970
C         -1.17400        3.44100        0.03630
N         -0.07490        4.13100        0.02510
N          1.07190        3.42340        0.00640
C          1.25040        2.03400       -0.00280
N          2.36440        1.40360       -0.02070
H         -2.14500        1.46910        0.03950
H         -2.09300        4.01490        0.05130
H          1.90120        3.99920       -0.00180
H          3.16090        2.04250       -0.02820
