18
gdb 13361	6.0078	0.99212	0.90872	0.1381	82.7	-0.2344	0.0245	0.2589	1316.8466	0.153886	-310.660167	-310.651679	-310.650735	-310.695101	30.033
C          0.03340        1.52630       -0.02640
C         -0.00310        0.07050       -0.01610
C         -0.03270       -1.13370       -0.00950
C         -0.07170       -2.59300        0.00810
C          0.68370       -3.23730        1.21360
C         -0.12100       -4.51090        1.56880
C         -1.48420       -4.22420        0.98370
C         -1.46610       -3.19080        0.14680
H          0.77470        1.91150        0.68270
H          0.29370        1.91340       -1.01790
H         -0.93800        1.95200        0.24950
H          0.36830       -2.95480       -0.93520
H          1.73340       -3.43500        0.98510
H          0.65330       -2.53640        2.05210
H          0.31380       -5.41090        1.11060
H         -0.14780       -4.69980        2.64780
H         -2.35550       -4.83150        1.20390
H         -2.30680       -2.80880       -0.42000
