17
gdb 11425	3.66977	1.64464	1.30566	2.8113	65.9	-0.262	0.0291	0.291	968.0343	0.142996	-401.02285	-401.015102	-401.014158	-401.055332	28.213
C          0.08780        1.14960        0.43840
O         -0.13570       -0.23840        0.24660
C         -1.42090       -0.55210       -0.18420
C         -1.52210       -2.06740       -0.36680
C         -1.93220       -2.53180        1.03740
C         -2.68420       -1.33810        1.58530
N         -3.46410       -1.33670        2.57550
O         -2.40080       -0.23230        0.81720
H          1.13700        1.26610        0.71580
H         -0.10430        1.71280       -0.48690
H         -0.54780        1.55220        1.23490
H         -1.69190        0.04360       -1.06620
H         -2.30260       -2.29460       -1.09800
H         -0.57740       -2.48120       -0.71970
H         -2.55360       -3.42700        1.05960
H         -1.05420       -2.71580        1.66420
H         -3.82990       -0.39750        2.74220
