18
gdb 17181	3.83945	1.84647	1.56798	1.3611	72.38	-0.263	0.073	0.336	871.612	0.15435	-347.720998	-347.713917	-347.712973	-347.75226	27.693
O         -0.07910        1.41280        0.12180
C         -0.04560       -0.00100       -0.03410
C         -1.46030       -0.49760       -0.05060
C         -2.57900       -0.17130       -1.06160
C         -3.23920       -1.12980       -0.05330
C         -1.93590       -1.98810        0.10810
C         -1.98040       -1.89510        1.64660
C         -2.46490       -0.51440        1.16240
H          0.82470        1.73900        0.08350
H          0.45420       -0.28580       -0.97490
H          0.50870       -0.48230        0.78870
H         -2.93910        0.86160       -1.07430
H         -2.44220       -0.54600       -2.08220
H         -4.26000       -1.51430       -0.02960
H         -1.63710       -2.82390       -0.52830
H         -2.71990       -2.52400        2.15280
H         -1.02410       -1.93190        2.17860
H         -2.76940        0.35740        1.74280
