18
gdb 5637	3.16065	1.91649	1.31994	3.8212	73.85	-0.2099	0.0359	0.2458	967.1907	0.154956	-344.035469	-344.027302	-344.026358	-344.068408	29.636
C         -0.12570        1.58750       -0.04790
C          0.04920        0.06710       -0.00000
N          0.71030       -0.46990       -1.17970
C          0.09270       -0.78780       -2.37400
C          1.09380       -1.19030       -3.21330
N          2.31000       -1.12690       -2.57550
C          2.05310       -0.68880       -1.35920
C          3.07900       -0.46570       -0.29750
H          0.84280        2.09160       -0.11470
H         -0.72100        1.88300       -0.91660
H         -0.63490        1.93900        0.85470
H          0.63440       -0.22100        0.87770
H         -0.92450       -0.42430        0.09330
H         -0.97530       -0.70380       -2.49420
H          1.01000       -1.52810       -4.23510
H          3.12320        0.57950        0.03050
H          2.89830       -1.08160        0.59170
H          4.05240       -0.73650       -0.70820
