18
gdb 13918	3.32087	1.90686	1.52776	2.5983	72.14	-0.2329	-0.0193	0.2136	897.6033	0.153781	-347.805329	-347.797695	-347.796751	-347.838268	28.501
O          0.06090        0.13830       -0.56120
C          0.00300        1.26310       -0.15070
C         -1.11150        2.12330        0.47060
C         -0.11340        3.32260        0.46470
C          1.02020        2.40980       -0.07930
C          2.34200        2.09910        0.68590
C          3.04210        1.90220       -0.68370
C          1.87590        2.67920       -1.34860
H         -2.00700        2.22150       -0.14940
H         -1.42000        1.77480        1.46100
H         -0.39320        4.12470       -0.22270
H          0.08770        3.75940        1.44540
H          2.70160        2.99040        1.20960
H          2.32970        1.25710        1.38250
H          4.05060        2.30470       -0.79850
H          3.03940        0.85200       -0.98310
H          1.48480        2.30210       -2.29670
H          2.09460        3.74670       -1.45060
