14
gdb 11194	5.81168	1.27715	1.06062	0.5692	68.12	-0.254	-0.0996	0.1544	1028.328	0.106946	-382.59093	-382.58373	-382.582786	-382.622992	25.606
O         -0.02270       -0.02070       -0.00040
C          0.00480        1.18810        0.00850
C          1.25640        1.96930        0.00140
C          1.31920        3.31150        0.01170
C          2.73640        3.76380        0.00050
O          3.12790        4.90580        0.00510
C          3.60560        2.49590       -0.02050
C          2.61810        1.31260       -0.01880
H         -0.92770        1.79140        0.02450
H          0.48310        4.00030        0.02650
H          4.24850        2.51690       -0.90530
H          4.26960        2.50220        0.84880
H          2.73670        0.65420        0.84800
H          2.71730        0.66780       -0.89810
