14
gdb 19543	4.58469	1.7627	1.65546	4.8839	67.18	-0.2507	0.0103	0.261	798.736	0.10993	-341.530468	-341.524506	-341.523562	-341.560548	23.358
N         -0.12680       -1.16590       -0.00220
C         -0.07290       -0.00870        0.00130
C          0.00310        1.40000        0.02110
C         -0.75450        2.48110        0.79990
C          0.55920        3.12060        1.24570
C          1.18770        2.45260       -0.01240
N          0.53560        3.08470       -1.19660
C         -0.71650        2.48620       -0.73770
H         -1.67250        2.34620        1.35610
H          0.62020        4.21300        1.30900
H          0.92640        2.67020        2.17070
H          2.24980        2.23300       -0.08720
H          0.54450        4.10570       -1.15350
H         -1.59970        2.39790       -1.35670
