22
gdb 13894	2.65393	1.62571	1.22958	1.425	78.25	-0.2445	0.0678	0.3122	1106.9106	0.198347	-350.196633	-350.186767	-350.185822	-350.230804	36.538
C          0.30110        1.04700        0.70990
C          0.19420       -0.28430       -0.04850
C          1.14190       -1.33990        0.54170
C         -1.23790       -0.79580       -0.03730
C         -2.29580       -0.36880       -1.04650
C         -2.01080        0.58800       -2.18470
C         -1.73410       -1.77770       -1.06160
O         -0.81700       -2.14490       -2.05670
H          1.32820        1.42740        0.69460
H         -0.34930        1.81170        0.27370
H          0.01000        0.92380        1.76030
H          0.49760       -0.11520       -1.08620
H          0.87140       -1.57510        1.57850
H          1.10000       -2.26530       -0.03890
H          2.17710       -0.98180        0.54330
H         -1.61440       -0.96450        0.97070
H         -3.30160       -0.28130       -0.64200
H         -1.06320        0.35900       -2.67690
H         -2.79960        0.52810       -2.94380
H         -1.97080        1.62630       -1.83870
H         -2.37610       -2.59220       -0.72560
H         -1.30400       -2.28480       -2.87560
