14
gdb 14335	4.68712	1.89473	1.59437	5.1591	56.67	-0.2921	0.0426	0.3347	791.2505	0.10885	-419.719433	-419.713185	-419.712241	-419.75129	22.987
O         -0.13050       -0.01630       -0.06910
C         -0.08080        1.17010       -0.04120
O         -1.12960        1.99500       -0.31370
C         -0.74610        3.35840       -0.16250
C         -1.09130        3.97720        1.21510
C          0.41720        3.90460        1.61840
C          0.75000        3.28630        0.23760
O          1.03360        1.89060        0.26490
H         -1.04270        3.90780       -1.05660
H         -1.49980        4.98790        1.15590
H         -1.76950        3.35770        1.80430
H          0.88970        4.87300        1.79450
H          0.65330        3.24130        2.45210
H          1.50050        3.78500       -0.37660
