16
gdb 15960	3.04736	1.94243	1.36551	2.7647	69.28	-0.259	0.0168	0.2758	907.6037	0.131771	-342.761607	-342.754316	-342.753372	-342.793339	27.296
N         -0.38740       -0.83300       -0.87600
C         -0.24610        0.22520       -0.43040
C         -0.02740        1.55030        0.12090
C          0.06620        1.72020        1.67550
C          1.26940        2.68570        1.47400
C          1.39640        2.15520        0.04420
C          2.56210        1.52950       -0.61310
N          2.02600        2.83130       -1.07130
H         -0.76430        2.24320       -0.29980
H         -0.82550        2.11610        2.16180
H          0.35640        0.78610        2.15850
H          0.97070        3.73780        1.48950
H          2.12980        2.55110        2.13160
H          3.53990        1.58090       -0.14190
H          2.39020        0.64680       -1.22350
H          1.48450        2.71060       -1.92440
