16
gdb 18039	3.96562	2.15648	1.57265	1.7485	64.14	-0.2209	0.02	0.2409	800.5796	0.134284	-379.899752	-379.893379	-379.892435	-379.930476	24.467
C          0.01800        1.54020       -0.18210
N          1.49630        1.52880        0.08210
C          1.40750        0.12090        0.57400
C          1.46220        0.06840        2.10180
O          0.57960       -0.93190        2.64030
C         -0.66680       -0.95030        2.10980
N         -1.06690       -0.49820        0.99600
C         -0.06120        0.01390        0.09420
H         -0.51600        2.14270        0.55950
H         -0.27660        1.87360       -1.18100
H          2.01630        1.57180       -0.78750
H          2.11930       -0.57780        0.12610
H          2.45460       -0.17370        2.48650
H          1.16330        1.04510        2.49890
H         -1.35780       -1.44660        2.78960
H         -0.14060       -0.54520       -0.84370
