14
gdb 16149	4.24657	1.7442	1.45677	2.328	58.62	-0.2606	-0.0472	0.2134	841.5574	0.106713	-419.662628	-419.655849	-419.654904	-419.693777	24.723
O         -0.68660        0.86930        0.50780
C          0.31810        0.90870       -0.15700
C          1.40040        1.90690        0.04190
C          1.46390        2.82930        1.24070
O          2.38070        3.85800        0.88000
C          2.41360        3.99510       -0.53200
C          2.01750        2.64090       -1.08600
O          2.69290        1.55090       -0.48100
H          0.52310        0.19130       -0.98080
H          0.45580        3.21740        1.44570
H          1.84480        2.34310        2.14310
H          1.69940        4.75250       -0.89500
H          3.42490        4.30120       -0.81800
H          1.71800        2.51750       -2.12390
