18
gdb 18536	5.63094	1.07461	1.02627	1.0327	67.71	-0.2347	0.0803	0.315	1173.6052	0.153327	-384.886319	-384.878333	-384.877389	-384.919142	29.517
O         -0.03250        1.40310        0.00600
C         -0.04470       -0.00500        0.19190
C         -1.43020       -0.51130       -0.19330
C         -1.54960       -2.01750       -0.06720
O         -1.30950       -2.52050        1.28750
C         -2.52190       -3.27610        1.23210
C         -3.70920       -2.37460        1.13860
C         -2.91440       -2.70770       -0.11050
H          0.81330        1.73800        0.31740
H          0.71940       -0.49570       -0.43410
H          0.16150       -0.27780        1.23680
H         -2.17520       -0.01400        0.43580
H         -1.63910       -0.22700       -1.23230
H         -0.84350       -2.51470       -0.74680
H         -2.51170       -4.28310        1.63240
H         -4.67570       -2.86690        1.18870
H         -3.67240       -1.38780        1.59040
H         -3.35230       -3.18200       -0.97800
