17
gdb 6625	7.5427	0.69398	0.64382	3.5929	73.96	-0.2386	0.0304	0.2689	1697.1047	0.13957	-363.881897	-363.871614	-363.870669	-363.920745	33.583
C         -0.02030        1.49330       -0.00610
C         -0.00160        0.03760        0.02940
C          0.03020       -1.16590        0.06070
C          0.03910       -2.62400        0.09680
C         -1.37190       -3.22250       -0.02200
C         -1.35220       -4.74680        0.07610
N         -2.53970       -5.35080       -0.22590
O         -0.36340       -5.37900        0.39360
H          0.56770        1.88010       -0.84600
H         -1.04080        1.87770       -0.11440
H          0.39650        1.92090        0.91270
H          0.66570       -3.02120       -0.71010
H          0.49660       -2.98620        1.02350
H         -2.01190       -2.82820        0.77700
H         -1.83910       -2.91710       -0.96520
H         -3.37600       -4.82610       -0.41220
H         -2.61150       -6.34720       -0.10100
