14
gdb 9154	7.909	0.77824	0.71472	2.8982	83.32	-0.2621	-0.077	0.1851	1511.522	0.103631	-345.369809	-345.36086	-345.359916	-345.404113	30.729
C         -0.06360        1.51320        0.10090
C          0.03640       -0.00180       -0.05590
C          0.76170       -0.42680       -1.32110
O          1.21630        0.35680       -2.12760
C          0.88290       -1.86120       -1.51520
C          0.98590       -3.05880       -1.68010
C          1.09980       -4.39940       -1.86210
C          1.20030       -5.59210       -2.02270
H          0.92890        1.96930        0.13370
H         -0.59940        1.95890       -0.74080
H         -0.59300        1.76650        1.02320
H          0.55720       -0.46370        0.79410
H         -0.95540       -0.47410       -0.06960
H          1.28950       -6.64100       -2.16560
