15
gdb 10821	5.02452	1.54757	1.22917	3.1972	66.34	-0.2536	-0.037	0.2166	935.6733	0.120019	-399.810565	-399.803355	-399.802411	-399.842026	26.981
O          0.00500        1.39420        0.13250
C          0.03740       -0.01940       -0.01090
C         -1.42220       -0.46870       -0.01240
O         -1.56400       -1.84920       -0.35460
C         -0.93490       -2.29360       -1.48500
N         -1.26900       -3.38200       -2.04940
C          0.19500       -1.49980       -1.98510
C          0.67770       -0.46070       -1.30180
H          0.90210        1.70470        0.28860
H          0.56290       -0.48240        0.84100
H         -1.87290       -0.35560        0.97480
H         -1.97190        0.15960       -0.72480
H         -2.05910       -3.80100       -1.55370
H          0.62840       -1.85000       -2.91390
H          1.54440        0.09360       -1.65290
