14
gdb 13066	4.45864	1.12497	0.96424	4.0306	66.81	-0.2539	0.0048	0.2587	1189.2123	0.106057	-382.539292	-382.531158	-382.530214	-382.573549	27.343
C          0.01200        1.52630       -0.08800
C          0.05340        0.07350       -0.01940
C          0.08630       -1.12880        0.03000
C          0.10290       -2.57200        0.09870
C          0.04440       -3.26670        1.48280
O         -1.18830       -3.95230        1.10080
C         -1.23850       -3.32440       -0.11530
O         -2.06950       -3.41530       -0.95470
H          0.72010        1.90890       -0.83090
H         -0.98700        1.87920       -0.36580
H          0.26710        1.97550        0.87800
H          0.87720       -2.99730       -0.54890
H          0.83770       -3.98390        1.69970
H         -0.12770       -2.59890        2.32760
