14
gdb 19684	5.20942	1.6412	1.53359	3.4231	60.45	-0.2382	-0.0296	0.2086	820.1609	0.106929	-382.468674	-382.462426	-382.461482	-382.499527	23.643
O         -0.04910       -0.01530        0.18970
C         -0.02320        1.18900        0.11580
C          1.24840        1.99520        0.02540
C          1.44740        2.98130       -1.13700
C          0.79570        4.29290       -0.66370
O          0.19330        4.05030        0.60760
C          1.38040        3.27100        0.92280
C          2.18270        3.97100       -0.23400
H         -0.95530        1.79140        0.10930
H          2.11600        1.34120        0.13900
H          1.63210        2.75410       -2.17860
H          0.38000        5.05120       -1.31290
H          1.60400        3.22120        1.98560
H          3.13770        4.47070       -0.30750
