16
gdb 1125	4.87307	1.71279	1.48636	2.2997	57.6	-0.2643	0.0599	0.3242	869.2448	0.135443	-362.972786	-362.964484	-362.96354	-363.005362	29.57
C         -0.03770        1.52110       -0.05080
C          0.00370       -0.00220        0.01300
C          0.63300       -0.53800        1.29080
O         -1.34560       -0.53160       -0.02120
C         -1.90970       -0.65510       -1.24620
N         -3.19830       -1.09820       -1.11900
O         -1.37010       -0.38900       -2.29610
H          0.97780        1.92710       -0.00530
H         -0.49620        1.84900       -0.98610
H         -0.60930        1.92720        0.79010
H          0.52810       -0.38770       -0.86580
H          0.08800       -0.18300        2.17130
H          0.62570       -1.63130        1.29890
H          1.67000       -0.19860        1.36920
H         -3.48110       -1.51010       -0.24590
H         -3.63280       -1.43490       -1.96090
