14
gdb 1506	4.75431	1.62059	1.298	2.322	56.34	-0.2508	-0.0755	0.1753	909.7756	0.112327	-361.755045	-361.747226	-361.746281	-361.788152	26.294
C          0.15700        1.37860        0.21710
C         -0.34330       -0.06710        0.20210
N          0.24150       -0.87210        1.26110
C          1.05930       -1.92290        1.04080
O          1.41170       -2.36850       -0.03780
C          1.55450       -2.57270        2.33730
O          1.25520       -2.18320        3.43690
H          1.24060        1.41720        0.07410
H         -0.31810        1.95100       -0.58530
H         -0.07990        1.87190        1.16590
H         -1.43630       -0.08990        0.29360
H         -0.07880       -0.56090       -0.73570
H          0.07250       -0.64250        2.23100
H          2.21930       -3.43950        2.15320
