18
gdb 9663	3.54591	1.29553	1.10898	2.4971	70.11	-0.246	-0.0248	0.2212	1125.9919	0.151015	-384.940873	-384.931848	-384.930904	-384.974512	32.6
C         -0.10250        1.49770       -0.20310
C         -0.10360        0.05830        0.32600
C         -1.43680       -0.62680        0.11820
C         -1.78170       -1.28470       -1.18250
C         -1.51630       -2.14860        0.04270
O         -0.31610       -2.85670        0.15110
C         -2.68610       -2.78820        0.70460
O         -3.80830       -2.34070        0.69680
H          0.86810        1.97480       -0.03670
H         -0.31240        1.52400       -1.27740
H         -0.86370        2.10580        0.29750
H          0.68260       -0.52620       -0.16140
H          0.13680        0.05930        1.39620
H         -2.27980       -0.18600        0.64450
H         -2.80640       -1.24680       -1.53490
H         -1.01280       -1.31600       -1.94840
H         -0.28080       -3.50840       -0.55680
H         -2.42950       -3.73570        1.22980
