15
gdb 3160	4.15408	2.59131	1.89992	1.7005	56.96	-0.2524	0.076	0.3285	700.0347	0.123995	-345.611057	-345.604272	-345.603328	-345.641782	24.784
C         -0.28640        1.50250        0.01690
C          0.12780        0.04610        0.00610
O          1.35250       -0.18600       -0.74320
C          1.97180       -0.90310        0.34680
C          0.78910       -0.56300        1.24480
C          0.71190       -0.20870        2.65930
O          0.17010       -1.44230        2.15300
H          0.50460        2.13070        0.43670
H         -0.49290        1.84290       -1.00240
H         -1.19790        1.63660        0.60950
H         -0.68500       -0.58980       -0.37350
H          2.07700       -1.97610        0.13970
H          2.94800       -0.48460        0.61800
H          1.59260       -0.31200        3.29190
H         -0.02470        0.51690        3.00100
