16
gdb 14071	3.57105	1.68537	1.40699	1.4768	67.27	-0.2458	-0.0289	0.2169	926.8081	0.128636	-383.724238	-383.716446	-383.715502	-383.756452	28.496
C         -0.09220        1.48000       -0.05880
C          0.07280       -0.02280       -0.05910
C          1.44590       -0.64870       -0.12120
C          0.65910       -0.69510        1.15800
O          1.03400        0.00720        2.34930
C          0.54220       -1.05300        3.20570
C          0.14420       -1.85410        1.95190
O         -0.35240       -2.91500        1.71580
H          0.69490        1.96020        0.52860
H         -0.05130        1.87530       -1.07900
H         -1.05360        1.76840        0.37780
H         -0.72520       -0.58580       -0.53740
H          1.58620       -1.58000       -0.65980
H          2.30110        0.01990       -0.11570
H          1.33220       -1.49900        3.82010
H         -0.29090       -0.73150        3.84100
