18
gdb 8384	4.13468	1.4085	1.27608	1.2607	68.8	-0.2229	0.0706	0.2935	1023.2739	0.152073	-384.90403	-384.895811	-384.894867	-384.936801	30.951
C         -0.67600        1.34940        0.18980
C          0.04440        0.02720        0.02770
C          0.86340       -0.20130       -1.26740
C          2.04780       -0.27300       -0.31840
C          3.23260       -1.19390       -0.33120
C          3.40320        0.31280       -0.49620
O          3.68290        0.85370       -1.75420
O          1.25330       -0.04490        0.84070
H         -0.01950        2.18350       -0.07620
H         -1.56190        1.38240       -0.45430
H         -1.00150        1.48360        1.22620
H         -0.62160       -0.80780        0.27950
H          0.63560       -1.11710       -1.81540
H          0.88600        0.64350       -1.95860
H          3.54910       -1.63110        0.61020
H          3.36890       -1.81920       -1.20860
H          3.81890        0.85060        0.35660
H          4.59370        0.63450       -1.97790
