15
gdb 3220	3.6725	3.11095	2.26834	2.2301	55.6	-0.2554	0.0656	0.321	631.0059	0.125628	-345.616998	-345.610505	-345.609561	-345.647062	25.03
O          0.22380        1.40210       -0.02130
C          0.05740       -0.00830       -0.03690
C         -1.35010       -0.58280       -0.00560
C         -2.12240       -0.17550       -1.23910
C         -1.11960       -1.27660       -1.36140
C          0.29230       -0.67850       -1.44140
O          0.55010        0.23010       -2.47920
H         -0.64490        1.80090       -0.13830
H          0.71180       -0.42250        0.73380
H         -1.85220       -0.96230        0.87610
H         -3.16370       -0.47860       -1.23960
H         -1.93610        0.76780       -1.74570
H         -1.39320       -2.28340       -1.64990
H          1.07020       -1.45040       -1.40600
H          0.71960        1.07490       -2.03590
