17
gdb 14668	13.58699	0.57665	0.56082	4.3778	79.18	-0.2596	0.0255	0.2851	1920.9299	0.140837	-326.726183	-326.716654	-326.71571	-326.763418	31.84
C         -0.04530        1.56100        0.05910
C          0.00820        0.02360       -0.00910
C          0.68720       -0.47020       -1.20290
C          1.25360       -0.84060       -2.19940
C          1.93140       -1.33350       -3.39100
C          1.96880       -2.88410       -3.42660
C          2.64620       -3.39150       -4.61710
N          3.18570       -3.77250       -5.56540
H          0.96240        1.98490        0.06580
H         -0.57770        1.96990       -0.80380
H         -0.56170        1.88330        0.96800
H          0.51380       -0.36550        0.88390
H         -1.01180       -0.38040        0.02240
H          1.43070       -0.96970       -4.29580
H          2.95840       -0.95270       -3.43390
H          2.48010       -3.26260       -2.53590
H          0.94850       -3.27970       -3.40020
