13
gdb 8786	4.60411	1.33626	1.0424	3.4509	62.96	-0.2522	-0.1172	0.135	1053.4859	0.094294	-394.800659	-394.791937	-394.790993	-394.834876	28.884
C         -0.13090        1.43020       -0.00680
N         -0.05850       -0.01000       -0.13150
C          0.65630       -0.60960       -1.10830
N          1.32230        0.03530       -1.99600
C          0.57920       -2.11780       -1.03240
O         -0.04780       -2.72020       -0.19670
C          1.33870       -2.83920       -2.07200
N          1.92100       -3.44080       -2.86980
H          0.86550        1.86080        0.14040
H         -0.55520        1.88030       -0.91080
H         -0.76040        1.67940        0.84860
H         -0.54410       -0.61090        0.51310
H          1.79190       -0.59730       -2.64220
