22
gdb 6470	3.63631	1.2534	1.14746	1.5253	78.13	-0.2542	0.0679	0.3221	1169.9286	0.198982	-350.200217	-350.190833	-350.189889	-350.233907	35.421
C          0.10490        1.58590        0.09610
C          0.06210        0.06610        0.04910
C          1.04520       -0.67490       -0.90200
C          1.32410       -1.71910        0.22490
C          0.51660       -3.00660        0.04610
C          2.80310       -2.01840        0.46220
O          3.05480       -2.73330        1.66410
C          0.66400       -0.73340        1.23920
H          1.12310        1.94390        0.28850
H         -0.22880        2.02490       -0.85110
H         -0.54020        1.97830        0.89040
H         -0.96480       -0.26280       -0.14440
H          0.64570       -1.05680       -1.84600
H          1.93030       -0.06750       -1.12360
H          0.89600       -3.60010       -0.79500
H          0.55210       -3.62750        0.94920
H         -0.53860       -2.79220       -0.15100
H          3.21970       -2.54740       -0.41220
H          3.35510       -1.07730        0.56310
H          2.71180       -3.62520        1.55610
H          1.41350       -0.15340        1.78740
H         -0.03490       -1.16010        1.96370
