16
gdb 17929	2.91695	2.38797	2.38294	0.8521	63.38	-0.2416	0.0629	0.3045	720.8017	0.131526	-383.685112	-383.678877	-383.677933	-383.714995	25.529
O         -0.10200        1.43800        0.05180
C          0.00670        0.06910        0.01050
C         -1.24670       -0.88070        0.02980
C         -0.74620       -1.51460       -1.29770
C          0.63910       -0.85970       -1.08650
O          1.41420       -1.55380       -0.08460
C          0.71460       -0.91690        1.00690
C         -0.65310       -1.58500        1.28130
H          0.78330        1.82030        0.02930
H         -2.27320       -0.52070        0.07670
H         -0.76470       -2.60350       -1.38920
H         -1.25240       -1.06550       -2.15850
H          1.24380       -0.56780       -1.94800
H          1.38030       -0.67120        1.83730
H         -1.09520       -1.18450        2.19950
H         -0.66720       -2.67730        1.31450
