11
gdb 1381	8.65446	1.51492	1.28924	6.2626	52.59	-0.2514	-0.0893	0.1621	841.7272	0.07707	-376.588479	-376.581318	-376.580374	-376.620363	23.53
N          0.26280        1.29250        0.00500
C          0.03710        0.04830        0.00180
N         -1.24530       -0.50640        0.01080
C         -2.47400        0.13930        0.02670
O         -2.66550        1.32480        0.03580
C         -3.63450       -0.88150        0.03180
O         -4.78060       -0.54160        0.04510
H          1.26750        1.46230       -0.00340
H          0.79640       -0.74380       -0.00870
H         -1.27390       -1.51470        0.00550
H         -3.34080       -1.95970        0.02220
