21
gdb 2855	5.99498	1.26714	1.16532	0.1171	75.28	-0.2627	0.0941	0.3568	1119.7971	0.194358	-274.983122	-274.974445	-274.973501	-275.0162	31.674
C         -0.37420        1.52800        0.25900
C          0.17060        0.13980       -0.09840
C          0.90070       -0.50980        1.06070
C          0.15610       -1.31020        2.10570
C          1.12980       -1.99970        1.17630
C          0.65400       -3.00460        0.14560
C          0.54070       -4.42170        0.72070
H          0.43470        2.20500        0.55550
H         -0.89460        1.98300       -0.58970
H         -1.07790        1.46930        1.09600
H         -0.65790       -0.49810       -0.42620
H          0.84800        0.22460       -0.95880
H          1.71530        0.10210        1.44440
H          0.41360       -1.18940        3.15240
H         -0.90190       -1.48660        1.92950
H          2.08080       -2.27530        1.62890
H         -0.31940       -2.70040       -0.25520
H          1.34560       -3.01190       -0.70770
H          1.50780       -4.77340        1.09690
H         -0.16760       -4.45050        1.55540
H          0.19960       -5.13380       -0.03750
