15
gdb 13362	5.89995	1.05597	0.98551	1.7162	70.2	-0.2501	0.0178	0.2678	1194.8126	0.118995	-362.647647	-362.639537	-362.638593	-362.682486	27.184
C         -0.06430        1.44710        0.04670
C          0.00480       -0.00670        0.02770
C          0.05140       -1.20920        0.00040
C          0.13080       -2.66540       -0.00720
C          0.59440       -3.27010        1.35900
O         -0.46860       -4.18110        1.71980
C         -1.38700       -4.07610        0.73190
N         -1.19220       -3.30340       -0.25180
H          0.63250        1.88880       -0.67410
H         -1.07100        1.79540       -0.20880
H          0.18320        1.84600        1.03650
H          0.80440       -2.97970       -0.81380
H          1.52350       -3.83940        1.28270
H          0.68730       -2.51580        2.14270
H         -2.26240       -4.70120        0.87100
