15
gdb 2054	4.46379	2.6302	1.80077	2.7361	62.18	-0.2363	-0.0119	0.2244	701.2872	0.126398	-308.555419	-308.549155	-308.548211	-308.58569	23.581
O          0.01730       -0.08030       -0.04610
C         -0.01130        1.12330        0.05620
C         -1.30320        1.91880        0.12130
C         -1.32170        2.86820        1.33630
C         -0.02520        3.62150        1.47800
C          1.11820        3.22550        0.92120
C          1.26320        1.96050        0.11380
H         -1.35910        2.52530       -0.79330
H         -2.14710        1.22570        0.12410
H         -2.15880        3.56940        1.24110
H         -1.52060        2.29590        2.25380
H         -0.04490        4.52940        2.07530
H          2.02130        3.81520        1.05830
H          2.06840        1.32480        0.49880
H          1.54980        2.20110       -0.92230
