20
gdb 16428	3.23918	2.16065	1.64713	0.2379	79.35	-0.2767	0.0958	0.3725	883.7675	0.177077	-311.805563	-311.798085	-311.797141	-311.836644	29.934
C         -0.16660        1.59580       -0.01480
C         -0.03550        0.07970        0.00580
C          1.18370       -0.59330       -0.65830
C          2.13060       -0.29390        0.55500
C          2.58220       -1.76370        0.65650
C          1.09180       -1.84470        0.27750
C          0.71250       -0.60860        1.17700
C          0.34800       -0.62870        2.63690
H          0.77860        2.08740        0.23900
H         -0.47030        1.95190       -1.00560
H         -0.92250        1.93800        0.70120
H         -0.99480       -0.39550       -0.24280
H          1.47920       -0.60440       -1.70950
H          2.72090        0.61040        0.71140
H          3.29960       -2.10890       -0.09530
H          2.86630       -2.13080        1.64830
H          0.46530       -2.72310        0.10820
H          1.07710       -1.19960        3.22270
H          0.31100        0.38570        3.05000
H         -0.63600       -1.08630        2.79100
