18
gdb 8773	2.30094	1.73531	1.07702	4.1695	69.15	-0.2513	-0.0358	0.2154	1104.1337	0.149444	-384.961364	-384.951504	-384.95056	-384.997625	33.188
C          0.06930        1.54370        0.01750
C          0.00980        0.00520        0.01720
C          0.73430       -0.49460        1.25840
O          1.74750       -1.14270        1.25020
C         -1.44140       -0.54680       -0.00160
C         -2.25230       -0.06860       -1.21990
C         -1.41250       -2.06800       -0.02190
O         -1.91600       -2.77750        0.80870
H          1.10720        1.88600        0.06880
H         -0.37180        1.95890       -0.89120
H         -0.46760        1.96100        0.87670
H          0.55990       -0.38360       -0.84790
H          0.25170       -0.19120        2.21780
H         -1.95600       -0.25280        0.92090
H         -1.76380       -0.35440       -2.15820
H         -3.25260       -0.51160       -1.21110
H         -2.37100        1.01710       -1.21740
H         -0.88550       -2.49940       -0.90590
