15
gdb 18632	3.23667	2.07573	1.79221	3.6652	60.59	-0.2437	0.0141	0.2578	782.13	0.121106	-399.822083	-399.815438	-399.814494	-399.852752	25.912
O          0.04760        1.39510        0.06760
C         -0.04750        0.01040       -0.00800
C         -1.34490       -0.73460        0.01150
C         -2.58680        0.08750       -0.32530
N         -2.25390        0.69070       -1.61380
C         -1.21730        0.04840       -2.28170
O         -0.97430        0.15620       -3.46070
C         -0.47610       -0.75430       -1.25220
H         -0.59810        1.77940       -0.54000
H          0.77510       -0.44000        0.53740
H         -1.46790       -1.60670        0.64220
H         -3.47320       -0.55560       -0.39690
H         -2.78360        0.85610        0.43180
H         -2.95490        1.15680       -2.17030
H          0.09350       -1.60590       -1.59910
