14
gdb 5411	5.1463	1.58507	1.22104	1.8841	65.9	-0.2425	-0.0454	0.1971	927.8068	0.109097	-378.759993	-378.753047	-378.752103	-378.791808	24.897
O          0.00480        1.42770        0.00750
C         -0.00070        0.01350        0.00210
C         -1.42470       -0.48410        0.01280
C         -2.52430        0.37820        0.02380
N         -3.77970       -0.07570        0.03300
C         -3.92920       -1.40070        0.03110
C         -2.83490       -2.26230        0.02010
N         -1.58150       -1.81120        0.01090
H          0.91790        1.72640        0.00110
H          0.50190       -0.39720       -0.88770
H          0.51760       -0.40420        0.87950
H         -2.37780        1.45200        0.02520
H         -4.94520       -1.78710        0.03850
H         -2.97250       -3.34080        0.01870
