11
gdb 23680	4.02136	1.96347	1.31931	2.7408	54.62	-0.2647	-0.0406	0.2241	810.5374	0.074182	-438.75726	-438.751526	-438.750582	-438.78725	21.713
O          0.09750        1.30390        0.12660
C          0.07200       -0.03030        0.05870
N          0.07630       -0.58120       -1.15660
C          0.05010       -1.91690       -1.18080
C          0.02030       -2.69450       -0.03340
C          0.01980       -1.97040        1.15590
F         -0.00750       -2.62180        2.30600
N          0.04480       -0.66130        1.23300
H          0.11530        1.62100       -0.78720
H          0.05330       -2.38000       -2.16400
H         -0.00090       -3.77460       -0.04800
