15
gdb 8126	4.19039	1.8802	1.53673	4.7706	60.91	-0.2512	0.0477	0.2989	833.4568	0.119484	-399.838777	-399.831861	-399.830917	-399.869612	26.66
C         -0.01560        1.50130       -0.04760
C          0.07170        0.00760        0.05100
C         -0.80160       -0.83130        0.95270
C          0.70750       -0.78650        1.15900
N          1.49040       -1.75290        0.45670
C          1.25680       -1.70730       -0.90540
O          1.64300       -2.46300       -1.75040
O          0.47080       -0.60850       -1.16630
H          0.93690        1.92340       -0.38120
H         -0.79090        1.79450       -0.76220
H         -0.26770        1.93210        0.92520
H         -1.41180       -0.29370        1.67050
H         -1.23940       -1.74150        0.55710
H          1.14750       -0.33160        2.03910
H          1.77310       -2.63400        0.85400
