17
gdb 16672	2.98194	2.29517	1.81046	3.4292	62.7	-0.2405	0.0658	0.3064	789.9445	0.145132	-400.983939	-400.977331	-400.976387	-401.014296	27.11
O         -0.39980        1.15480        1.07400
C         -0.05740        0.13310        0.14440
C          0.94240       -0.89160        0.72620
C          0.05320       -1.92140        1.40650
N         -1.00510       -1.27850        2.22490
C         -1.32320       -1.79640        0.86910
C         -1.33340       -0.70160       -0.19280
O         -2.49150        0.09160       -0.23650
H         -0.64990        0.67290        1.88290
H          0.33330        0.64630       -0.73680
H          1.51320       -1.37200       -0.07700
H          1.65150       -0.40820        1.40470
H          0.45960       -2.87090        1.73860
H         -1.34680       -1.92570        2.92940
H         -1.99800       -2.64140        0.78620
H         -1.21800       -1.18270       -1.17350
H         -2.28820        0.85410        0.32670
