21
gdb 6745	4.74217	0.84335	0.79578	2.814	80.19	-0.2404	0.0331	0.2734	1552.4391	0.185864	-366.270829	-366.260721	-366.259776	-366.306371	35.749
C          0.27640        0.82240       -0.87910
C         -0.34210        0.27750        0.41320
N         -1.47440       -0.62850        0.32700
C         -1.93210       -0.98130       -0.78900
O         -2.95720       -1.85790       -0.85520
C         -3.54250       -2.07930       -2.14890
C         -4.10610       -3.49420       -2.13490
C         -4.60350       -1.01730       -2.43130
H          1.10960        1.48770       -0.63340
H          0.66890        0.02160       -1.51510
H         -0.44610        1.39980       -1.46630
H          0.43590       -0.23660        0.99400
H         -0.65560        1.12070        1.04350
H         -1.56390       -0.65840       -1.77230
H         -2.74840       -2.01280       -2.90760
H         -4.87540       -3.58890       -1.36260
H         -4.55520       -3.73570       -3.10280
H         -3.31730       -4.22060       -1.92360
H         -5.06270       -1.18340       -3.41090
H         -5.38660       -1.05340       -1.66800
H         -4.16660       -0.01410       -2.42510
