20
gdb 7772	3.15422	1.8236	1.25099	0.9667	77.38	-0.2412	0.0239	0.2651	1027.8721	0.177153	-349.025453	-349.017297	-349.016353	-349.05758	31.467
C          0.00580        1.51470        0.08630
C          0.03840       -0.00230       -0.01780
C          0.77460       -0.51100       -1.26430
C          1.04590       -1.98650       -1.14300
C          0.94510       -2.61970        0.02260
C          0.61690       -1.90010        1.30650
C          1.57810       -2.26620        2.43590
O          0.67680       -0.48890        1.15770
H          1.02370        1.91100        0.15680
H         -0.47680        1.95110       -0.79370
H         -0.54510        1.82630        0.97760
H         -0.99540       -0.38910       -0.04900
H          0.17160       -0.30710       -2.15870
H          1.71440        0.04480       -1.39470
H          1.31480       -2.53100       -2.04460
H          1.10400       -3.69260        0.09670
H         -0.40730       -2.18570        1.61740
H          2.60480       -2.01550        2.15450
H          1.31950       -1.71150        3.34180
H          1.52530       -3.33710        2.65420
