14
gdb 20435	4.93449	2.20728	1.56082	2.7211	62.94	-0.2143	0.0326	0.2469	766.294	0.11118	-378.732373	-378.726454	-378.72551	-378.762577	22.269
C          0.07480        1.37890       -0.17200
C          1.52140        1.81830        0.19490
N          2.06500        0.52320        0.53230
N          3.29690        0.09480        0.90040
C          3.06540       -1.16130        1.28220
C          1.69850       -1.54660        1.19090
C          1.10440       -0.40300        0.71060
O         -0.12830        0.06710        0.42040
H         -0.69330        2.04650        0.21970
H         -0.04360        1.28450       -1.25630
H          2.03910        2.28120       -0.64840
H          1.55550        2.50240        1.05100
H          3.89360       -1.77310        1.61060
H          1.24540       -2.49210        1.43110
