16
gdb 19941	3.73473	2.3884	1.93393	2.8013	62.7	-0.2413	0.081	0.3222	731.5837	0.132669	-383.709749	-383.703795	-383.702851	-383.739724	23.771
C          0.11330        1.57810        0.15230
O          1.46580        1.52980       -0.34900
C          1.37650        0.11420       -0.60900
C          2.35960       -0.75710        0.19740
C          1.59650       -1.17760        1.44070
O          1.13110       -0.08410        2.23700
C          0.19520       -0.72190        1.35800
C         -0.02320        0.04070        0.06530
H          0.06530        2.00630        1.15780
H         -0.54950        2.13270       -0.52320
H          1.42690       -0.08860       -1.68550
H          2.65420       -1.64490       -0.37410
H          3.26520       -0.19160        0.43690
H          1.89660       -2.06070        2.00100
H         -0.62620       -1.23720        1.85010
H         -0.85850       -0.35110       -0.51650
