18
gdb 12290	3.93874	1.31383	1.11865	1.8138	63.8	-0.2482	0.0569	0.3051	1074.2267	0.152744	-422.050108	-422.041226	-422.040282	-422.08376	32.215
O         -0.09950        1.40020       -0.21160
C          0.02480       -0.00350       -0.01590
C         -1.37780       -0.57560        0.02750
C         -2.23290       -0.56430       -1.27140
C         -2.74070       -1.98480       -0.89860
O         -2.83590       -2.97140       -1.89120
C         -1.54660       -2.11340        0.10290
O         -0.44200       -2.76170       -0.51880
H          0.78260        1.76390       -0.33100
H          0.59200       -0.47550       -0.82960
H          0.55030       -0.23090        0.92590
H         -1.92510       -0.10740        0.85180
H         -2.97390        0.22740       -1.39220
H         -1.60180       -0.59360       -2.16540
H         -3.70530       -1.95890       -0.38440
H         -1.95810       -3.03130       -2.28830
H         -1.74650       -2.55010        1.08930
H         -0.62490       -3.70730       -0.50490
