16
gdb 5923	3.46892	1.32483	1.21538	5.7459	67.71	-0.2794	0.0055	0.2849	1049.1707	0.127879	-379.929137	-379.920103	-379.919159	-379.962819	31.811
C          0.01270        1.57330        0.00560
C          0.00650        0.03540        0.06480
C          0.79520       -0.51290        1.26740
O         -1.33470       -0.49220        0.02430
C         -2.18310       -0.19720        1.03550
N         -3.35780       -0.65320        1.00220
C          0.62320       -0.48320       -1.17510
N          1.15630       -0.85920       -2.12740
H          1.03530        1.93800       -0.11800
H         -0.58870        1.91880       -0.83770
H         -0.39100        1.99590        0.92910
H          0.39950       -0.11080        2.20330
H          0.73210       -1.60270        1.29210
H          1.84570       -0.22260        1.18850
H         -1.75720        0.43450        1.82190
H         -3.87390       -0.34930        1.82520
