12
gdb 4955	3.27319	2.47611	1.4097	6.4444	60.22	-0.2168	-0.0372	0.1796	791.1317	0.086425	-414.732511	-414.726184	-414.72524	-414.763037	23.951
O         -0.02610       -0.04630        0.00450
C         -0.01010        1.16260        0.01000
N         -1.16450        1.92410        0.02900
C         -1.21530        3.31200        0.03610
C         -0.07430        4.01250        0.02420
N          1.14020        3.33900        0.00480
C          1.29670        1.96480       -0.00370
O          2.38180        1.43200       -0.02050
H         -2.02050        1.38700        0.03790
H         -2.19270        3.76910        0.05140
H         -0.03950        5.09100        0.02870
H          2.00650        3.85940       -0.00430
