12
gdb 706	8.58988	2.85701	2.76639	1.903	45.96	-0.2647	0.0726	0.3373	507.0283	0.096139	-306.31359	-306.308102	-306.307158	-306.34263	19.299
C          0.40540        1.36390        0.31710
O          1.04520        0.28340       -0.36930
C         -0.31190        0.11490        0.02440
C         -0.57900       -0.89800        1.09760
C          0.36790       -1.98900        1.36820
O          0.27080       -0.85690        2.23830
H          0.75700        1.53210        1.33180
H          0.21430        2.25160       -0.28350
H         -1.02920        0.10230       -0.79810
H         -1.63610       -1.05380        1.31950
H          0.00700       -2.92910        1.78200
H          1.28190       -2.03710        0.78190
