17
gdb 20899	4.89259	1.39476	1.17257	2.746	70.85	-0.2473	0.0175	0.2648	1059.7664	0.14347	-360.086016	-360.077937	-360.076993	-360.119173	28.437
C         -0.19650        1.52390        0.16240
C          0.13640        0.04320       -0.01730
N          0.76730       -0.53140        1.15890
C          0.29750       -1.44480        2.03020
N          1.18000       -1.68010        2.98200
C          2.21640       -0.85610        2.64320
C          3.47940       -0.76570        3.43190
N          2.00860       -0.14060        1.54460
H          0.71120        2.08950        0.38380
H         -0.64270        1.92120       -0.75400
H         -0.90420        1.66880        0.98390
H         -0.76660       -0.54320       -0.21150
H          0.81380       -0.09720       -0.86520
H         -0.67500       -1.90410        1.92750
H          3.97650       -1.73970        3.48010
H          4.15820       -0.04350        2.97520
H          3.27150       -0.45720        4.46130
