17
gdb 1313	3.37636	2.56399	2.12543	2.2041	60.07	-0.2415	0.065	0.3065	721.569	0.146152	-346.840635	-346.832595	-346.831651	-346.87248	29.266
C         -0.13190        1.53510        0.06300
C         -0.00290        0.01740        0.05620
C         -1.30360       -0.67580       -0.31840
O          1.08070       -0.40670       -0.83030
C          1.91910       -0.78000        0.27800
C          0.75930       -0.57480        1.27460
O          0.93930        0.32640        2.33950
H          0.81270        2.00850        0.33700
H         -0.42140        1.87940       -0.93470
H         -0.89270        1.85840        0.77960
H         -1.64280       -0.34420       -1.30510
H         -1.16930       -1.76080       -0.35240
H         -2.08810       -0.44210        0.40950
H          2.32120       -1.79440        0.16950
H          2.74570       -0.07400        0.43740
H          0.31750       -1.51820        1.62040
H          1.36290       -0.13880        3.06690
