16
gdb 8509	3.86541	2.10754	1.65839	1.2678	64.59	-0.2516	0.0693	0.3208	791.3467	0.129906	-383.660055	-383.653145	-383.6522	-383.690479	27.924
O         -0.05120        1.31440        0.04420
C          0.05420       -0.06060        0.05720
C          0.76830       -0.97330        1.08090
C          0.07980       -1.92000        0.07070
O          0.12650       -3.29640       -0.00130
C         -1.18760       -0.99000       -0.08020
C         -1.09480       -1.01850       -1.62070
C          0.37820       -1.01350       -1.15970
H          0.83230        1.68730       -0.04700
H          1.86390       -0.96770        1.07740
H          0.37570       -0.96190        2.10370
H         -0.26690       -3.65750        0.80040
H         -2.06250       -0.97650        0.57220
H         -1.44640       -1.92790       -2.11450
H         -1.44560       -0.12610       -2.14520
H          1.29920       -1.02580       -1.74540
