16
gdb 5758	5.89544	1.4212	1.22708	3.7549	70.65	-0.2139	0.0312	0.2451	976.121	0.133571	-342.810008	-342.803178	-342.802234	-342.841728	25.761
C          0.40410        1.58180        0.15870
C          1.21940        0.41590       -0.33020
C         -0.22710        0.21350        0.09180
C         -0.55590       -0.50710        1.33590
C         -0.92130       -0.09660        2.59460
N         -1.14120       -1.17020        3.42800
C         -0.91770       -2.22960        2.68690
N         -0.56230       -1.88910        1.41510
H          0.63540        1.97880        1.14010
H          0.07790        2.32400       -0.56050
H          1.45220        0.35350       -1.38750
H          1.99040        0.03020        0.32720
H         -0.92670        0.06340       -0.72840
H         -1.04320        0.91830        2.94190
H         -0.99620       -3.25790        3.00780
H         -0.31990       -2.51920        0.66860
