22
gdb 18752	2.68996	2.09945	1.4694	0.1882	81.14	-0.2589	0.0724	0.3313	972.7846	0.201137	-313.046821	-313.038623	-313.037679	-313.079465	32.076
C          0.38760        1.48500       -0.41720
C          0.02280        0.05480       -0.03510
C          0.47700       -1.09060       -0.99830
C          1.18900       -1.79780        0.17710
C          2.65310       -1.32980        0.42620
C          2.16330       -0.44960        1.61480
C          2.76570        0.92880        1.85800
C          0.68910       -0.69110        1.17640
H          1.43670        1.57880       -0.71210
H         -0.21660        1.80990       -1.27240
H          0.20390        2.18660        0.40360
H         -1.06250        0.01310        0.10620
H         -0.35550       -1.65510       -1.42730
H          1.13560       -0.78380       -1.81820
H          0.99260       -2.85990        0.32960
H          3.37660       -2.10860        0.68120
H          3.06100       -0.75310       -0.41140
H          2.29100       -1.03470        2.53450
H          2.78490        1.54390        0.95560
H          2.20530        1.47760        2.62370
H          3.79890        0.83500        2.21220
H         -0.00690       -0.89740        1.99300
