18
gdb 8415	3.57579	1.90847	1.60318	1.7557	66.96	-0.2331	0.0685	0.3015	868.4212	0.152242	-384.899584	-384.891694	-384.89075	-384.931055	30.983
C         -0.09720        1.59790        0.09700
C          0.06290        0.08460        0.11180
C         -1.20530       -0.62410       -0.34940
O          1.18900       -0.37990       -0.73360
C          1.68040       -1.19450        0.33940
C          2.19110       -0.30530        1.41330
O          2.79800        0.91520        1.12420
C          0.69620       -0.58920        1.33580
H          0.78890        2.09930        0.48590
H         -0.29350        1.94570       -0.92300
H         -0.95190        1.88520        0.71840
H         -1.47640       -0.29420       -1.35700
H         -1.06240       -1.70770       -0.36530
H         -2.03870       -0.39400        0.32330
H          1.98780       -2.20780        0.10470
H          2.67200       -0.80690        2.24920
H          2.71710        1.02470        0.16670
H          0.14230       -1.04700        2.14600
