23
gdb 1294	6.08497	0.99017	0.90107	0.0577	78.7	-0.2997	0.0862	0.3858	1383.4554	0.216412	-276.206257	-276.196497	-276.195553	-276.240836	34.915
C          0.08960        1.58170       -0.03990
C          0.02890        0.05180       -0.04380
C         -1.39900       -0.49670        0.06020
C         -1.45750       -2.02880        0.05980
C         -2.87310       -2.63470        0.05710
C         -2.80660       -4.15530       -0.14050
C         -3.66220       -2.29240        1.32910
H          1.12020        1.94260       -0.11650
H         -0.47360        2.00220       -0.88060
H         -0.33920        1.99250        0.88110
H          0.49780       -0.33170       -0.95980
H          0.62830       -0.34090        0.78840
H         -1.86500       -0.10090        0.97150
H         -1.99610       -0.10990       -0.77810
H         -0.91880       -2.39890       -0.82350
H         -0.90650       -2.41450        0.93050
H         -3.41500       -2.20840       -0.80030
H         -2.26850       -4.63400        0.68680
H         -3.80840       -4.59590       -0.18160
H         -2.28640       -4.41560       -1.06850
H         -4.66090       -2.74130        1.30320
H         -3.15040       -2.67670        2.22010
H         -3.78930       -1.21370        1.45720
