20
gdb 17790	5.72527	1.02541	1.00828	1.3187	75.79	-0.2625	0.0809	0.3433	1228.9303	0.17823	-348.944228	-348.936369	-348.935425	-348.976989	29.853
O          0.00140        1.43810       -0.23940
C          0.01690        0.03380       -0.02890
C         -1.40980       -0.48100       -0.18950
C         -1.49540       -1.99480       -0.05180
C         -1.41290       -2.72250        1.33540
C         -2.87060       -2.25550        1.62000
C         -2.86180       -2.73150        0.13710
C         -2.03790       -3.95820        0.62560
H          0.89710        1.76890       -0.12620
H          0.67870       -0.47010       -0.75290
H          0.39050       -0.21390        0.97800
H         -2.04440        0.04040        0.53290
H         -1.76750       -0.18760       -1.18460
H         -0.86150       -2.46630       -0.81430
H         -0.57360       -2.72420        2.03350
H         -3.44360       -2.87140        2.31870
H         -3.03860       -1.19560        1.81460
H         -3.70310       -2.73900       -0.55860
H         -1.41840       -4.46440       -0.12040
H         -2.56230       -4.67280        1.26550
