20
gdb 19441	2.99704	2.048	1.54464	0.1826	79.05	-0.2426	0.0888	0.3314	920.2747	0.177302	-311.829815	-311.822167	-311.821223	-311.86189	30.342
C          0.08460        1.48850       -0.08730
C          1.34970        0.66730        0.02940
C          0.01340       -0.00950       -0.00290
C         -0.67290       -0.81520        1.11280
C         -1.43390       -1.62810        0.01820
C         -0.55780       -0.95430       -1.05110
C         -0.89100       -0.68130       -2.48610
C          0.20570       -1.66200       -2.13390
H         -0.23640        2.06460        0.77530
H         -0.13090        1.95930       -1.04170
H          1.98790        0.58860       -0.84600
H          1.89130        0.68470        0.97030
H          0.02190       -1.42710        1.69540
H         -1.29720       -0.24260        1.80370
H         -1.35390       -2.71610        0.08830
H         -2.49190       -1.36000       -0.05670
H         -1.82600       -1.07110       -2.87690
H         -0.60100        0.27640       -2.90870
H          1.23370       -1.36340       -2.31570
H          0.01700       -2.72070       -2.28380
