14
gdb 8989	6.05064	0.84937	0.76355	3.5531	66.84	-0.2571	-0.0688	0.1882	1376.7242	0.102946	-382.526813	-382.517962	-382.517017	-382.561906	29.527
O         -0.19250       -0.05880       -0.21340
C         -0.01040        1.12750       -0.13430
C          1.34000        1.80470       -0.16510
C          1.40320        2.89150       -1.24320
C          2.58840        3.83110       -1.06540
O          3.30730        3.81310       -0.09130
C          2.79210        4.77410       -2.15120
C          2.94150        5.54510       -3.06330
H         -0.86940        1.83280       -0.02400
H          1.50840        2.27750        0.81150
H          2.11770        1.05070       -0.30590
H          1.44530        2.46230       -2.25130
H          0.49700        3.51560       -1.23230
H          3.09030        6.23390       -3.85960
