15
gdb 5791	6.09735	1.3934	1.22188	2.396	67.71	-0.2051	0.0396	0.2447	962.9126	0.120759	-362.671851	-362.66508	-362.664136	-362.703224	25.54
C          0.10720        1.53930        0.01800
O          1.19970        0.62620       -0.07790
C         -0.12090        0.08080        0.02750
C         -0.43280       -0.66990        1.26090
C          0.36370       -0.74320        2.38360
N         -0.28270       -1.52610        3.30420
C         -1.47790       -1.96180        2.79160
C         -1.59930       -1.44870        1.52220
H          0.03480        2.08430        0.95780
H         -0.09790        2.11900       -0.88190
H         -0.49170       -0.36270       -0.89810
H          1.33550       -0.32030        2.57540
H          0.08040       -1.76840        4.20900
H         -2.13360       -2.59540        3.36680
H         -2.43130       -1.60520        0.85230
