16
gdb 959	3.52096	3.19779	1.71141	1.7538	67.73	-0.1892	0.0522	0.2415	743.04	0.137298	-288.69006	-288.682557	-288.681613	-288.722085	26.923
C         -0.10050        1.50970        0.11120
C         -0.01130        0.02520       -0.03210
C          0.02090       -0.79320       -1.14560
C         -0.02870       -0.37270       -2.58470
C          0.11120       -2.13970       -0.67390
C          0.13140       -2.10610        0.69730
N          0.05660       -0.79000        1.07780
H          0.76720        1.92810        0.63760
H         -0.14470        1.98630       -0.87020
H         -0.99670        1.81960        0.66430
H          0.86290       -0.69940       -3.13330
H         -0.89520       -0.80110       -3.10280
H         -0.09350        0.71400       -2.69030
H          0.15590       -3.02800       -1.28660
H          0.19190       -2.89550        1.42920
H          0.05310       -0.46190        2.02750
