15
gdb 4299	3.82636	1.83266	1.24872	4.2198	71.72	-0.2128	-0.0309	0.1819	931.7077	0.120942	-362.74464	-362.737679	-362.736734	-362.775778	26.432
C         -0.02330        1.52360        0.03200
C          0.00300        0.01810        0.00060
C         -0.02660       -0.67290       -1.17700
C         -0.00190       -2.12090       -1.24270
O         -0.02510       -2.81500       -2.24650
N          0.05540       -2.72630        0.03050
C          0.08550       -2.05580        1.21330
C          0.06110       -0.69850        1.23990
H          0.87130        1.91780        0.52770
H         -0.07290        1.94600       -0.97370
H         -0.88720        1.88570        0.60130
H         -0.07070       -0.16150       -2.13160
H          0.07340       -3.73630        0.00970
H          0.12900       -2.66670        2.10730
H          0.08530       -0.17310        2.18560
