16
gdb 9130	3.94493	0.87744	0.75892	1.3349	75.47	-0.2552	0.0254	0.2806	1474.7923	0.127393	-346.531304	-346.52169	-346.520746	-346.567057	33.192
C          0.01270        1.46360       -0.12500
C         -0.03400       -0.07350        0.06920
C          0.71020       -0.47760        1.26800
C          1.33610       -0.78580        2.24570
C         -1.41730       -0.56190        0.10140
C         -2.56300       -0.93240        0.10830
C         -3.93170       -1.44840        0.13890
O         -4.06320       -2.73930       -0.44000
H          1.05070        1.79980       -0.18540
H         -0.50850        1.73770       -1.04540
H         -0.47030        1.96620        0.71570
H          0.46160       -0.53030       -0.79990
H          1.88380       -1.06770        3.11060
H         -4.30020       -1.43450        1.17710
H         -4.59440       -0.79470       -0.43910
H         -3.40900       -3.30880       -0.02180
