16
gdb 18201	4.28881	1.67328	1.38365	5.1039	68.25	-0.2546	0.0408	0.2954	894.4297	0.133597	-342.789576	-342.782867	-342.781923	-342.820509	25.855
N         -0.02870       -1.15420       -0.13050
C         -0.01930       -0.00020       -0.06630
C         -0.00840        1.45960        0.00060
C         -0.64990        2.02780        1.30320
C          0.01150        3.41140        1.50020
C          1.38930        3.25580        0.88200
N          2.06240        2.00430        1.29010
C          1.38980        2.07740       -0.01760
H         -0.55140        1.83500       -0.87610
H         -1.73770        2.07720        1.22970
H         -0.39550        1.37100        2.13530
H         -0.53630        4.19330        0.96100
H          0.04650        3.69730        2.55550
H          1.99200        4.13130        0.66350
H          3.06610        2.09150        1.15670
H          1.97630        2.03120       -0.92850
