16
gdb 15393	4.1037	1.11737	0.94125	2.4046	68.11	-0.2575	0.0168	0.2743	1223.2267	0.127321	-383.663666	-383.654921	-383.653977	-383.697653	30.509
C          0.08220        1.35590        0.19320
O          0.01660       -0.05060        0.19270
C         -1.24640       -0.53700       -0.20070
C         -1.19580       -2.03990       -0.16360
O         -1.55040       -2.68580        1.05530
C         -2.41960       -2.86450       -0.07460
C         -3.73840       -2.29140       -0.00610
C         -4.85420       -1.84530        0.02480
H          1.09250        1.63480        0.50110
H         -0.11410        1.77400       -0.80730
H         -0.64000        1.79810        0.89710
H         -2.04360       -0.17810        0.46660
H         -1.49060       -0.20290       -1.22520
H         -0.33280       -2.47450       -0.66950
H         -2.38100       -3.86370       -0.50810
H         -5.83850       -1.44770        0.06140
