14
gdb 15224	2.73721	1.52974	1.17353	3.9121	61.02	-0.2531	-0.0435	0.2096	1005.1124	0.104527	-419.667744	-419.65964	-419.658696	-419.70085	28.295
O         -0.07960        1.37280       -0.04460
C         -0.06120       -0.01760        0.03940
C         -0.53280       -0.69840        1.31010
C         -0.91240        0.09980        2.50280
O         -0.77050       -0.30330        3.63180
C         -1.39710       -0.69010        0.01410
C         -2.65790        0.10060       -0.07720
O         -3.65890       -0.34100       -0.58490
H          0.71470        1.71600        0.37900
H          0.74620       -0.50860       -0.50250
H         -0.09450       -1.65920        1.55840
H         -1.31600        1.11240        2.30140
H         -1.46660       -1.65040       -0.48480
H         -2.62180        1.12840        0.33090
