18
gdb 14312	2.84915	2.19404	1.8646	3.0075	66.41	-0.2196	0.0575	0.2771	813.3636	0.155913	-384.933661	-384.926648	-384.925704	-384.964498	28.381
O         -0.35570        1.66160        0.21800
C         -0.19010        0.28700        0.11750
C         -0.40350       -0.71910        1.22310
C         -1.27290       -0.34870        2.41910
C         -2.60430        0.19130        1.85820
O         -2.53510        1.62930        1.89080
C         -2.70960       -0.36660        0.41770
C         -1.29760       -0.73250       -0.02190
H         -1.08150        1.85630        0.83500
H          0.67630        0.08200       -0.50550
H          0.35670       -1.47750        1.38190
H         -1.46310       -1.24560        3.01790
H         -0.82300        0.39600        3.08380
H         -3.45760       -0.11880        2.47310
H         -3.31600        1.97620        1.44580
H         -3.33400       -1.26730        0.41810
H         -3.20000        0.35840       -0.24480
H         -1.19930       -1.49970       -0.78350
