15
gdb 6007	2.67884	1.91876	1.48531	2.0231	61.81	-0.26	0.0023	0.2622	887.9612	0.118061	-396.023096	-396.014168	-396.013224	-396.056385	32.139
C          0.57850        1.30740        0.64190
C          0.07570       -0.05850        0.12070
N          0.08680       -1.01800        1.22810
C         -1.29620        0.07970       -0.38860
N         -2.34860        0.19500       -0.85330
C          1.05560       -0.50230       -1.02080
N          0.68600       -0.23100       -2.29340
O          2.11280       -1.01400       -0.70990
H          1.60820        1.18450        0.98660
H          0.55880        2.06510       -0.14510
H         -0.04460        1.62870        1.47790
H         -0.37200       -1.87850        0.93840
H          1.06590       -1.26480        1.37070
H         -0.24140        0.08680       -2.52210
H          1.30230       -0.51470       -3.03840
