18
gdb 18378	2.96363	2.47061	1.64349	0.5886	79.36	-0.2042	-0.0194	0.1848	835.8695	0.156863	-310.668302	-310.661587	-310.660643	-310.699005	27.044
C         -0.17210        1.30280        0.36880
C          1.24490        0.96500        0.02570
C          2.32900        0.71630        1.07290
C          1.87450        0.30830        2.45050
C          1.05400       -0.71140        2.74050
C          0.36140       -1.58320        1.79820
C          0.00550       -1.31390        0.52950
C          0.15820       -0.06080       -0.24120
H         -0.45480        1.30430        1.41460
H         -0.70790        2.01640       -0.24750
H          1.63470        1.44240       -0.87120
H          3.00080       -0.05890        0.67360
H          2.93710        1.62410        1.15840
H          2.29400        0.87390        3.27840
H          0.88530       -0.93940        3.79170
H          0.07240       -2.55460        2.19390
H         -0.51000       -2.10520       -0.01050
H         -0.11850       -0.16610       -1.28560
