14
gdb 17146	4.25572	2.00874	1.63524	1.9701	68.46	-0.2371	0.0112	0.2483	787.0932	0.106238	-345.27049	-345.264196	-345.263252	-345.300706	25.12
C         -0.02730       -1.12070        0.06600
C         -0.03460        0.08170        0.05630
C         -0.02800        1.50830        0.02120
O         -0.70170        2.28880        1.06330
C         -0.14010        3.28910        0.16590
C          1.18210        2.50850       -0.10550
C          1.01700        2.61740       -1.63550
C         -0.43830        2.49050       -1.13970
H         -0.02490       -2.18280        0.08080
H         -0.29640        4.34190        0.39250
H          2.07940        2.50090        0.51230
H          1.29420        3.57360       -2.08650
H          1.40450        1.78530       -2.22810
H         -1.37630        2.46250       -1.69310
