24
gdb 5994	2.54882	1.35869	1.13961	0.981	82.11	-0.244	0.0802	0.3242	1246.2738	0.220099	-351.416092	-351.405285	-351.404341	-351.451706	39.444
C          0.06930        1.55610        0.15780
C         -0.07710        0.04630        0.03900
O          0.63980       -0.53730        1.10880
C          0.72440       -1.96890        1.18330
C         -0.66890       -2.62010        1.17840
C          1.57440       -2.51920        0.02560
C          1.46110       -2.22610        2.51450
C          0.75310       -1.69700        3.76480
H          1.12250        1.84520        0.09750
H         -0.47760        2.05840       -0.64610
H         -0.32480        1.90400        1.11700
H         -1.14140       -0.23060        0.07720
H          0.31090       -0.29170       -0.93380
H         -1.14640       -2.54690        0.19700
H         -0.58800       -3.68370        1.42400
H         -1.32590       -2.14800        1.91320
H          2.54740       -2.01970       -0.00060
H          1.74160       -3.59360        0.15150
H          1.08740       -2.37660       -0.94350
H          1.63640       -3.30460        2.60810
H          2.44690       -1.75310        2.43410
H          0.52500       -0.63440        3.65290
H         -0.18370       -2.22750        3.96260
H          1.38980       -1.82060        4.64630
