16
gdb 3177	5.53989	2.25827	1.9113	1.5348	60.04	-0.2396	0.075	0.3146	703.8903	0.138827	-325.748612	-325.742299	-325.741355	-325.779277	23.716
C          0.13720        1.52780       -0.04650
N          1.28240        0.60370        0.07530
C         -0.08390        0.06660        0.02270
C         -0.59210       -0.70030        1.24830
C         -1.35970       -1.88050        0.61810
O         -0.82010       -2.03940       -0.69040
C         -0.59350       -0.73010       -1.17840
H         -0.04320        2.15160        0.82540
H         -0.03310        2.02870       -0.99790
H          1.74070        0.49890       -0.82740
H          0.26330       -1.04200        1.83570
H         -1.22980       -0.09240        1.89540
H         -1.23180       -2.82670        1.14860
H         -2.43800       -1.65850        0.56000
H         -1.53080       -0.29090       -1.56350
H          0.12440       -0.78640       -2.00310
