16
gdb 5907	4.04087	1.26551	1.21124	2.5013	70.87	-0.2668	0.0202	0.287	1038.5102	0.128303	-342.760777	-342.751651	-342.750707	-342.794069	33.227
C          0.05620        1.55190        0.02070
C          0.04010        0.01530        0.03150
N          0.77100       -0.45880        1.20770
C         -1.41670       -0.53710        0.08490
C         -2.17420       -0.07770        1.24000
C         -2.82390        0.30100        2.17670
C          0.64970       -0.48480       -1.22880
N          1.15290       -0.90060       -2.18360
H          1.08370        1.92290       -0.03290
H         -0.49110        1.94140       -0.84120
H         -0.40720        1.91480        0.93970
H          0.82890       -1.47320        1.20740
H          1.72490       -0.11020        1.18900
H         -1.92980       -0.24850       -0.83960
H         -1.37190       -1.63330        0.07940
H         -3.39300        0.62940        3.01100
