15
gdb 1838	5.79053	2.0254	1.54316	4.111	65.26	-0.2311	-0.0364	0.1947	786.6695	0.125301	-308.569875	-308.563072	-308.562127	-308.600747	24.748
C         -0.02640        1.48660        0.04810
C         -0.00020       -0.00410       -0.02930
C         -0.03430       -0.76140       -1.13730
C          0.00900       -2.19900       -0.80610
O         -0.00640       -3.13240       -1.57570
C          0.07910       -2.30110        0.72870
C          0.07250       -0.84600        1.22970
H          0.86780        1.86380        0.56020
H         -0.07930        1.94790       -0.94070
H         -0.88620        1.82890        0.63780
H         -0.08670       -0.40360       -2.15820
H         -0.77220       -2.88450        1.09110
H          0.98130       -2.84990        1.01350
H          0.96940       -0.59190        1.80860
H         -0.77880       -0.62660        1.88640
