20
gdb 15267	3.59943	1.29926	1.17738	1.8016	71.85	-0.2269	0.0666	0.2935	1136.2697	0.175259	-386.108266	-386.098843	-386.097899	-386.142594	33.886
C          0.42780        1.45980        0.28430
C         -0.22060        0.15400       -0.18940
C          0.53160       -0.46590       -1.35060
C          1.79360       -1.28300       -1.12360
O          2.21050       -1.56920        0.17930
C          0.52970       -1.95320       -1.61440
O         -0.12410       -2.75990       -0.67340
C          0.21580       -4.13190       -0.81130
H          1.44580        1.27320        0.63850
H          0.48220        2.19430       -0.52700
H         -0.14270        1.90980        1.10300
H         -0.27070       -0.55420        0.64170
H         -1.25910        0.33580       -0.49220
H          0.53770        0.14230       -2.25320
H          2.63980       -1.15340       -1.79110
H          1.51110       -2.10590        0.57540
H          0.45130       -2.31510       -2.63970
H         -0.08930       -4.51730       -1.79460
H          1.29470       -4.29760       -0.69010
H         -0.32550       -4.67530       -0.03350
