20
gdb 19764	2.88187	2.67908	2.23106	0.027	76.16	-0.2536	0.0804	0.334	765.7837	0.182552	-311.893064	-311.886993	-311.886049	-311.922932	25.89
C          0.05580        1.57190       -0.09080
C          1.54260        1.87000        0.04940
C          2.16780        0.70390        0.79460
C          1.05320       -0.28850        1.09790
C          0.01170        0.02870       -0.00030
C          0.48430       -0.57180       -1.33660
C          1.90180       -0.05300       -1.71400
C          2.46030        0.91120       -0.67380
H         -0.49960        2.03190        0.73540
H         -0.38020        1.94160       -1.02650
H          1.86920        2.89020        0.21850
H          2.96050        0.85490        1.51910
H          1.37690       -1.33560        1.06750
H          0.64320       -0.09960        2.09740
H         -0.98470       -0.34700        0.24780
H          0.48700       -1.66460       -1.26140
H         -0.23530       -0.31720       -2.12230
H          2.59600       -0.89320       -1.83010
H          1.87630        0.44910       -2.68800
H          3.45040        1.29590       -0.90240
