22
gdb 6527	3.10978	1.50172	1.23339	1.3621	78.9	-0.2563	0.0737	0.33	1097.9562	0.197664	-350.19522	-350.185139	-350.184195	-350.229284	37.407
C         -0.03040        1.49640       -0.07310
C         -0.00470       -0.02160        0.01980
C         -1.23420       -0.63710       -0.63370
C          1.32230       -0.73390       -0.12810
C          0.65450       -0.68040        1.23120
C          1.28270        0.17000        2.32590
C          0.08660       -1.97160        1.78600
O          1.16130       -2.72310        2.34720
H          0.87470        1.96300        0.31910
H         -0.13090        1.80640       -1.12000
H         -0.88510        1.91290        0.47380
H         -1.33650       -0.25910       -1.65790
H         -1.18700       -1.72580       -0.69840
H         -2.15200       -0.37010       -0.09550
H          1.33770       -1.68630       -0.64920
H          2.21760       -0.13770       -0.27620
H          1.87650        0.99570        1.93000
H          0.51880        0.59370        2.98990
H          1.94340       -0.45530        2.93200
H         -0.66690       -1.73970        2.55740
H         -0.41400       -2.55390        1.00290
H          0.78550       -3.48140        2.80360
