15
gdb 17805	4.73872	1.57271	1.35546	2.929	61.8	-0.2387	0.0114	0.2501	897.1036	0.118953	-399.753893	-399.746602	-399.745658	-399.786689	26.853
N         -0.04040        1.40400        0.30500
C          0.11500        0.14380       -0.19550
O          1.19330       -0.25750       -0.59600
C         -1.17170       -0.66760       -0.19330
C         -1.77220       -1.29870       -1.49150
C         -0.65060       -2.36110       -1.52520
C         -1.18450       -2.21940       -0.08110
O         -2.56690       -2.19620       -0.62380
H          0.76180        2.01270        0.31830
H         -0.92250        1.75400        0.63350
H         -1.95280       -0.21230        0.41990
H         -2.29190       -0.79380       -2.30640
H         -0.93560       -3.29130       -2.01750
H          0.36740       -2.03260       -1.72090
H         -0.99870       -2.83140        0.80130
