17
gdb 20557	4.42214	1.48722	1.47077	0.6683	70.09	-0.2552	0.0035	0.2587	946.0351	0.143719	-360.060562	-360.052832	-360.051888	-360.093448	27.931
C         -0.02570        1.54210       -0.01210
C         -0.01470        0.01190        0.04150
C          0.75030       -0.53090        1.25150
N         -1.38740       -0.50690        0.03290
N         -2.25050       -0.24390        1.00550
C         -3.35970       -0.88340        0.62490
C         -3.10840       -1.52140       -0.59480
N         -1.84640       -1.26810       -0.95370
H          1.00020        1.91950       -0.05220
H         -0.55970        1.89770       -0.89740
H         -0.51400        1.95220        0.87570
H          0.41680       -0.38760       -0.87900
H          0.29010       -0.18610        2.18110
H          0.75560       -1.62420        1.25150
H          1.78590       -0.18000        1.22350
H         -4.25290       -0.85340        1.22830
H         -3.74950       -2.12970       -1.21230
