17
gdb 6300	4.12541	1.09487	0.96754	3.8492	69.33	-0.2652	-0.0303	0.2349	1215.6047	0.139519	-363.908873	-363.899529	-363.898584	-363.943633	32.182
C         -0.14020        1.64180        0.01870
C         -0.03080        0.10440        0.04300
C          0.77440       -0.41310        1.25150
C          2.27450       -0.15990        1.11660
C          3.11030       -0.44750        2.34760
O          2.76200        0.23380        0.08170
C         -1.36140       -0.50990        0.02770
N         -2.41240       -0.99120        0.02780
H          0.86070        2.07450       -0.02780
H         -0.70420        1.97650       -0.85490
H         -0.65010        2.00960        0.91420
H          0.49700       -0.21600       -0.86210
H          0.40670        0.02930        2.18540
H          0.63900       -1.49630        1.36740
H          2.89390       -1.44570        2.74300
H          4.16990       -0.36230        2.10520
H          2.85990        0.26820        3.13950
