14
gdb 5704	4.87527	2.08072	1.48983	1.7993	62.59	-0.2194	0.002	0.2214	790.7927	0.111012	-378.73043	-378.72431	-378.723366	-378.761172	22.646
C         -0.07800        1.49130        0.14060
N          1.32830        1.89340       -0.16780
C          2.17440        0.72930       -0.58600
C          1.24480       -0.41890       -0.36830
C          0.03630        0.01620        0.01760
O         -0.77160       -1.05240        0.23980
C          0.04750       -2.11300       -0.04850
N          1.25400       -1.80440       -0.41050
H         -0.36870        1.82190        1.14770
H         -0.80180        1.92880       -0.56290
H          1.33610        2.60680       -0.88270
H          2.50410        0.81710       -1.63070
H          3.07930        0.67040        0.03300
H         -0.39300       -3.09250        0.05070
