12
gdb 4532	3.65048	1.84326	1.22862	1.7308	52.31	-0.1776	0.0583	0.2359	881.8921	0.083704	-451.825317	-451.817674	-451.816729	-451.856884	27.855
O          0.07410        1.28270        0.10800
C          0.09300       -0.05900        0.01680
N          0.16570       -0.76630       -1.08280
C          0.12240       -2.07970       -0.65870
O          0.19150       -3.11180       -1.53450
C          0.03880       -2.15660        0.69860
O         -0.07440       -3.17310        1.59470
N          0.02850       -0.81710        1.13100
H          0.11260        1.61580       -0.79710
H          0.23950       -2.71700       -2.41250
H          0.74260       -3.68470        1.60050
H         -0.08250       -0.50020        2.07870
