18
gdb 6710	5.71911	0.82843	0.786	5.4128	69.45	-0.2413	0.0262	0.2675	1441.6413	0.152724	-381.119559	-381.110126	-381.109182	-381.154554	33.024
C         -0.02890        1.42110       -0.13240
C         -0.28840       -0.08070       -0.05810
O          0.76460       -0.77300        0.61400
C         -1.63630       -0.40770        0.61220
N         -1.91120       -1.83140        0.78110
C         -2.28370       -2.51430       -0.45390
C         -2.60320       -3.92210       -0.19460
N         -2.83710       -5.03680       -0.00320
H          0.94760        1.61910       -0.58210
H         -0.79460        1.92630       -0.73000
H         -0.04290        1.86850        0.86980
H         -0.27640       -0.49590       -1.07360
H          0.91500       -0.33170        1.45830
H         -1.64530        0.05440        1.60970
H         -2.45940        0.04880        0.04870
H         -1.07780       -2.26830        1.16540
H         -3.18020       -2.03210       -0.86340
H         -1.52240       -2.49150       -1.25310
