15
gdb 2435	5.33869	2.82285	2.42413	1.1259	59.95	-0.2393	0.0812	0.3205	601.6966	0.126184	-308.459279	-308.453652	-308.452708	-308.48816	23.1
O         -0.09510        1.33680       -0.06730
C          0.04830       -0.03520       -0.03990
C          0.94370       -0.89700       -0.92620
C          0.05000       -2.08120       -0.45130
C          0.37080       -2.22560        1.06390
C         -0.29520       -0.86200        1.21850
C         -1.07410       -1.02990       -0.07620
H          0.57750        1.72410        0.50380
H          0.78130       -0.66520       -1.98250
H          2.01880       -0.95660       -0.71560
H         -0.08410       -2.95490       -1.08450
H         -0.22220       -3.01740        1.53120
H          1.42420       -2.34130        1.34720
H         -0.62770       -0.35690        2.11720
H         -2.12400       -0.93600       -0.30980
