17
gdb 10548	2.62838	1.8497	1.30267	1.3514	70.81	-0.2464	0.0331	0.2795	981.9382	0.140324	-363.780422	-363.771663	-363.770719	-363.814146	31.498
C          0.00760        0.67270        0.37990
O          0.89640        0.47040       -0.70420
C          0.46740       -0.49890       -1.63590
C          0.53800       -1.93560       -1.09630
C          1.55540       -2.85460       -1.70380
N          1.78100       -2.29820       -0.37240
C         -0.68520       -2.48370       -0.56460
C         -1.72970       -2.91980       -0.15820
H         -0.99940        0.93940        0.02580
H         -0.07330       -0.21500        1.01970
H          0.41010        1.50130        0.96740
H         -0.55470       -0.28790       -1.98220
H          1.14800       -0.39580       -2.48670
H          1.35410       -3.92130       -1.72400
H          2.12650       -2.47730       -2.54880
H          2.40260       -1.49170       -0.41320
H         -2.64270       -3.31450        0.21360
