11
gdb 1937	8.16794	1.69622	1.6012	2.7802	53.21	-0.2928	-0.016	0.2768	736.5782	0.078945	-339.438949	-339.432887	-339.431943	-339.46916	21.428
N          0.03990        1.10570        0.53010
C         -0.03240       -0.02970        0.01780
C         -1.15090       -1.01230       -0.26120
C         -0.01450       -1.87140       -0.87500
O          0.95860       -0.84410       -0.52360
C          0.26980       -3.15140       -0.23310
N          0.47450       -4.17340        0.26480
H          0.99660        1.46260        0.54390
H         -1.62920       -1.42990        0.62460
H         -1.90600       -0.66860       -0.96840
H         -0.06090       -2.00290       -1.95920
