12
gdb 3212	3.69575	3.28579	2.0828	4.3094	50.41	-0.2317	-0.0296	0.202	611.4228	0.090224	-360.468392	-360.462422	-360.461478	-360.498209	22.182
O          0.01050        1.43310        0.16230
C          0.02200        0.04850        0.02160
C         -1.32730       -0.69540        0.02640
N         -2.03790       -0.13250       -1.12690
C         -1.08670       -1.28650       -1.33470
C          0.27010       -0.61860       -1.39400
O          1.21060       -0.68590       -2.12600
H         -0.67940        1.75750       -0.43180
H          0.74140       -0.36040        0.73870
H         -1.84740       -1.14270        0.86330
H         -2.97800       -0.52530       -1.15530
H         -1.43360       -2.21570       -1.76710
