20
gdb 14372	3.69363	2.23829	1.88902	0.0236	78.74	-0.2567	0.0937	0.3504	806.0854	0.180891	-311.825974	-311.819898	-311.818954	-311.855592	26.663
C         -0.01370        1.50930       -0.23480
C          1.52910        1.55130        0.08900
C          1.27880        0.30530        0.96400
C          1.75880       -1.10450        1.39060
C          0.38150       -1.06760        2.17050
C          0.68990        0.43400        2.39750
C         -0.73520       -0.95070        1.08560
C          0.03690       -0.01090        0.12170
H         -0.59130        2.10490        0.47580
H         -0.32000        1.77540       -1.24900
H          2.12220        1.33330       -0.80460
H          1.93210        2.44370        0.57460
H          1.89670       -1.84880        0.60040
H          2.59980       -1.12910        2.08870
H          0.20260       -1.74750        3.00480
H          1.47050        0.60720        3.14330
H         -0.15240        1.10960        2.57330
H         -0.99630       -1.90510        0.61910
H         -1.64940       -0.52570        1.51250
H          0.32680       -0.55120       -0.78670
