22
gdb 17917	2.90563	2.05675	1.98283	0.1017	79.83	-0.2827	0.0761	0.3588	873.2983	0.204491	-313.101309	-313.094204	-313.09326	-313.132049	29.505
C         -0.13850        1.53340        0.00110
C          0.06280        0.01970        0.01260
C          1.04980       -0.57310       -1.02630
C          2.41800       -0.04790       -0.53150
C          2.25840       -0.05720        1.02300
C          0.81890       -0.58670        1.22320
C          0.80600       -2.08950        0.86310
C          0.96580       -2.08010       -0.69430
H          0.79910        2.08790        0.10040
H         -0.61190        1.85550       -0.93310
H         -0.79180        1.84500        0.82360
H         -0.92050       -0.45730       -0.09120
H          0.83880       -0.33940       -2.07280
H          3.24030       -0.68280       -0.87460
H          2.61840        0.96020       -0.90580
H          2.99480       -0.69710        1.51840
H          2.37730        0.94610        1.44210
H          0.39950       -0.36520        2.20770
H          1.60680       -2.63950        1.36660
H         -0.13980       -2.55380        1.15930
H          0.10030       -2.53960       -1.18190
H          1.85270       -2.62520       -1.03130
