18
gdb 9886	4.53127	1.16388	1.07577	3.3578	69.53	-0.2462	0.0337	0.2799	1134.7596	0.153871	-381.125502	-381.11679	-381.115846	-381.159823	31.117
C         -1.38020        1.44330       -0.22750
C         -0.46720        0.23760       -0.16830
C         -1.00670       -0.96340        0.59260
N         -1.04490       -0.70910        2.02270
C         -2.18410       -0.72060        2.76200
O         -3.29610       -0.96030        2.33880
C          0.51060        0.00740       -1.26010
N          0.97730        0.44580        0.07180
H         -0.90440        2.27130       -0.76300
H         -2.31730        1.20270       -0.74040
H         -1.63570        1.78860        0.77970
H         -2.02800       -1.20210        0.28730
H         -0.37260       -1.83410        0.39190
H         -0.17290       -0.46760        2.46770
H         -1.98220       -0.48360        3.82590
H          0.79940       -1.00340       -1.53600
H          0.53540        0.72140       -2.07900
H          1.19120        1.44010        0.04510
