20
gdb 7204	3.78919	0.94863	0.79304	1.6707	69.4	-0.2546	0.0764	0.331	1470.7195	0.17434	-423.248914	-423.238748	-423.237804	-423.284704	34.666
C          0.39280        1.02350        0.24360
O         -0.13190       -0.21560       -0.17230
C          0.76290       -0.96430       -0.97650
C          0.00210       -2.20590       -1.42890
O         -1.19270       -1.83660       -2.09430
C          0.80690       -3.05330       -2.40570
O          1.96320       -3.51770       -1.74540
C          2.77430       -4.32660       -2.56260
H          1.29870        0.89450        0.85520
H          0.64540        1.66680       -0.61360
H         -0.37270        1.51880        0.84600
H          1.06910       -0.37310       -1.85610
H          1.66490       -1.24500       -0.41520
H         -0.21820       -2.81470       -0.53730
H         -1.57070       -1.12200       -1.56740
H          0.18110       -3.89100       -2.75220
H          1.06980       -2.45130       -3.29190
H          2.23690       -5.22320       -2.90940
H          3.13560       -3.78090       -3.44870
H          3.63420       -4.63910       -1.96500
