20
gdb 11588	5.69867	0.84688	0.78734	2.5918	75.89	-0.2407	-0.0072	0.2336	1488.8657	0.174953	-349.01896	-349.009595	-349.008651	-349.054429	33.065
C          0.19460        1.47970       -0.07410
C         -0.00600       -0.02040        0.06610
O         -0.20200       -0.53870        1.14180
C          0.05500       -0.83100       -1.22230
C         -0.24040       -2.32040       -1.03380
C         -0.11940       -3.10860       -2.32010
C          1.22540       -3.61970       -2.77810
C          0.17420       -4.58570       -2.28620
H          1.13070        1.69870       -0.59950
H         -0.61390        1.91260       -0.67460
H          0.20440        1.94680        0.91140
H         -0.63790       -0.37850       -1.94620
H          1.05230       -0.68730       -1.66280
H          0.44520       -2.72710       -0.28210
H         -1.24490       -2.43680       -0.61010
H         -0.78980       -2.78200       -3.11250
H          1.45730       -3.60480       -3.83730
H          2.08090       -3.43730       -2.13510
H          0.32670       -5.04740       -1.31610
H         -0.31410       -5.22830       -3.01050
