18
gdb 14880	3.77082	1.35111	1.09102	3.477	64.43	-0.2471	0.0584	0.3055	1103.677	0.15268	-422.035008	-422.026279	-422.025335	-422.069003	30.554
C         -0.11590        1.43940       -0.29340
O         -0.16330        0.24280        0.45430
C         -1.30840       -0.52200        0.20500
C         -1.32750       -1.41740       -1.05850
O         -1.52590       -2.60110       -0.25330
C         -1.35410       -1.85240        0.98350
C         -0.08590       -2.30910        1.69050
O         -0.16070       -3.70180        1.93320
H          0.79380        1.96810       -0.00110
H         -0.08090        1.24700       -1.37620
H         -0.98650        2.07990       -0.08390
H         -2.21450        0.08990        0.31790
H         -2.14800       -1.26880       -1.76890
H         -0.37100       -1.43330       -1.59670
H         -2.22150       -1.99500        1.63800
H          0.79400       -2.04510        1.08790
H          0.01190       -1.81180        2.66060
H         -0.37770       -4.10220        1.08180
