13
gdb 20467	6.52904	1.40819	1.25117	4.7343	60.28	-0.2545	-0.0109	0.2436	913.6183	0.097324	-394.74805	-394.741628	-394.740684	-394.779419	23.015
C          0.12980        1.55240        0.02360
O          1.16670        0.59420       -0.17260
C         -0.15690        0.10340        0.02290
C         -0.38370       -0.64170        1.27420
C          0.37420       -0.80100        2.41280
N         -0.30440       -1.59500        3.28710
N         -1.44130       -1.94200        2.76010
N         -1.49670       -1.37140        1.53790
H          0.15450        2.08110        0.97430
H         -0.12890        2.14970       -0.84950
H         -0.62020       -0.31880       -0.87020
H          1.35310       -0.40860        2.63130
H         -2.31060       -1.52080        0.96260
