17
gdb 15248	2.72416	1.68374	1.27065	4.2572	66.38	-0.2432	0.0121	0.2553	999.0252	0.140473	-400.985887	-400.977003	-400.976059	-401.019522	31.025
C          0.10990        1.43430        0.40190
C         -0.11540        0.00360       -0.03310
C          0.49060       -0.62360       -1.27280
C          1.41280        0.11950       -2.20450
O          2.33910       -0.82940       -2.71780
N          0.92900       -0.99040        0.05770
C          2.18420       -0.86950        0.61370
O          2.41790       -0.35760        1.68470
H          1.08550        1.81860        0.10070
H         -0.66730        2.07950       -0.02030
H          0.05960        1.50050        1.49180
H         -1.09650       -0.38330        0.24250
H         -0.09170       -1.39450       -1.77680
H          0.81480        0.57210       -3.01130
H          1.92930        0.93090       -1.67420
H          2.92910       -0.37630       -3.32790
H          2.95090       -1.36370       -0.01080
