19
gdb 12231	3.41544	1.51512	1.18275	2.301	74.8	-0.2433	0.0348	0.2782	1088.2257	0.164053	-365.071234	-365.062097	-365.061152	-365.105183	32.326
C          0.20380        1.41780       -0.08160
N          0.40680       -0.02070        0.02210
C          0.56290       -0.69200       -1.02150
O          0.58760       -0.30200       -2.35170
C          0.87010       -1.67410       -2.79330
C          2.17040       -1.75770       -3.56260
C          0.80460       -2.15860       -1.31370
C          2.00980       -2.81400       -0.65050
H          0.94640        1.92980        0.54030
H          0.27080        1.80820       -1.10390
H         -0.78140        1.67270        0.32550
H          0.03520       -2.03080       -3.40520
H          3.00870       -1.37060       -2.97770
H          2.38530       -2.79610       -3.83620
H          2.09860       -1.17170       -4.48380
H         -0.09330       -2.75550       -1.12590
H          2.92640       -2.23980       -0.80870
H          1.84310       -2.87660        0.42830
H          2.16830       -3.82830       -1.03040
