18
gdb 10065	2.98655	1.12832	0.85222	2.6608	73.62	-0.2496	0.0354	0.285	1357.7237	0.150909	-384.901043	-384.89094	-384.889996	-384.93767	33.978
C          0.07600        1.28660       -0.07390
O         -0.16130       -0.08250        0.18170
C          0.64750       -0.63070        1.22090
C          0.02980       -2.00510        1.52080
O         -1.32700       -1.87650        1.87790
C          2.05980       -0.73070        0.85020
C          3.21890       -0.84340        0.54190
C          4.62090       -0.97610        0.17400
H          1.10750        1.46050       -0.40730
H         -0.61300        1.58810       -0.86610
H         -0.11300        1.90150        0.81930
H          0.54340       -0.00370        2.12230
H          0.16820       -2.64580        0.63670
H          0.55430       -2.46480        2.36270
H         -1.72270       -1.32810        1.18920
H          5.07110       -1.85420        0.64980
H          4.73570       -1.09190       -0.90920
H          5.20030       -0.09810        0.47960
