16
gdb 2702	14.86585	0.81287	0.78572	3.8682	61.86	-0.2758	0.0347	0.3105	1355.9803	0.136033	-325.79183	-325.783423	-325.782478	-325.825195	28.313
O         -0.07710        1.45890        0.01070
C          0.03250        0.04480        0.00190
C         -1.37920       -0.52810        0.01230
C         -1.39570       -2.05790        0.00410
C         -2.83330       -2.61440        0.01490
C         -2.87170       -4.07530        0.00760
N         -2.88270       -5.23080        0.00130
H          0.80950        1.83150        0.00430
H          0.57120       -0.31000       -0.89220
H          0.58820       -0.31970        0.88160
H         -1.90110       -0.14720        0.89890
H         -1.91800       -0.13760       -0.85980
H         -0.87410       -2.43930       -0.88120
H         -0.85730       -2.44890        0.87500
H         -3.37150       -2.25750        0.90090
H         -3.38830       -2.24810       -0.85680
