19
gdb 13090	4.31889	1.16292	1.00442	3.1302	72.86	-0.22	-0.0213	0.1988	1188.0966	0.163909	-365.045464	-365.036793	-365.035848	-365.079341	31.003
C         -0.16570        1.57580       -0.18810
C         -0.00390        0.06760       -0.00340
C          1.07910       -0.57450       -0.91550
C          1.98830       -0.60710        0.33580
N          0.79340       -0.38340        1.16880
C          0.88760        0.38240        2.38570
C          1.40400       -0.48240        3.52760
O          2.12480       -0.09440        4.40880
H          0.80130        2.09000       -0.19800
H         -0.66490        1.77990       -1.14140
H         -0.77780        2.01800        0.60510
H         -0.99170       -0.40900       -0.03840
H          0.80620       -1.56830       -1.27330
H          1.42130        0.03220       -1.75540
H          2.53040       -1.53500        0.54800
H          2.70720        0.22790        0.36550
H          1.51120        1.29080        2.32570
H         -0.12450        0.69810        2.68070
H          1.03880       -1.53340        3.47820
