10
gdb 21349	6.20246	1.35951	1.30624	4.1157	52.5	-0.3394	-0.0731	0.2663	875.4255	0.0612	-405.76353	-405.757139	-405.756195	-405.795551	21.089
N         -0.06070       -1.17210       -0.00460
C         -0.01590       -0.01920        0.00170
C          0.00910        1.44630        0.01020
N          1.36310        1.98050       -0.00010
N          2.06730        2.23760        1.09460
N          3.20360        2.68030        0.66270
N          3.18930        2.69040       -0.69100
N          2.04420        2.25390       -1.10540
H         -0.50400        1.83420       -0.87270
H         -0.48650        1.82360        0.90750
