19
gdb 16611	2.99411	2.09582	1.37631	1.3435	78.3	-0.2145	0.0276	0.242	952.0378	0.165993	-327.923589	-327.915678	-327.914734	-327.955418	30.351
C          0.07270        1.50350        0.13160
C         -0.00400        0.01440        0.00550
C         -0.05830       -0.72690       -1.11370
C         -0.08480       -0.27900       -2.54140
C         -0.02970       -2.18330       -0.76690
N          1.24120       -2.58590       -0.09090
C          0.03750       -2.27400        0.71230
C          0.01550       -0.85350        1.25660
H          1.01750        1.81130        0.59850
H         -0.00080        2.01060       -0.83340
H         -0.73010        1.88610        0.77570
H         -0.14910        0.80730       -2.63900
H          0.81610       -0.61160       -3.07320
H         -0.94030       -0.71290       -3.07520
H         -0.54040       -2.91500       -1.38590
H          1.32560       -3.60060       -0.14380
H         -0.44080       -3.07650        1.26350
H          0.89110       -0.64290        1.88380
H         -0.87200       -0.67540        1.88030
