8
gdb 4222	6.53696	2.91337	2.01523	2.2694	41.93	-0.278	-0.1108	0.1672	538.6213	0.043872	-395.551843	-395.547064	-395.546119	-395.580601	16.536
F         -0.00220        0.08280        0.00400
C         -0.04210        1.38800        0.01030
N         -1.23100        1.95230        0.02940
C         -1.14700        3.27890        0.03550
N         -0.01270        3.98660        0.02410
N          1.12780        3.32040        0.00550
N          1.13930        1.99920       -0.00170
H         -2.07260        3.84680        0.05070
