11
gdb 3889	3.87306	3.53018	1.85767	4.6754	48.83	-0.2357	-0.0177	0.218	621.5313	0.080176	-372.711859	-372.705791	-372.704847	-372.741471	22.548
N          0.01560        1.38890        0.12730
C          0.03050        0.00700        0.02540
N         -1.02200       -0.76200        0.04120
O         -0.53840       -2.05150       -0.00600
N          0.83870       -2.06760       -0.05280
C          1.20380       -0.81630       -0.03640
N          2.50830       -0.36010       -0.13770
H          0.64040        1.83840       -0.53110
H         -0.91850        1.77230        0.05680
H          3.18680       -1.10790       -0.06640
H          2.71800        0.38080        0.52030
