13
gdb 20340	5.24912	2.12615	1.52744	3.825	66.01	-0.2255	-0.0376	0.1879	762.686	0.098136	-361.459305	-361.453808	-361.452864	-361.488745	21.761
C         -0.06070        1.53270        0.01090
C          1.42410        1.87720       -0.00160
C          2.19690        0.76910       -0.01490
C          1.28540       -0.36010       -0.01200
C         -0.02160        0.03400        0.00270
C         -0.71980       -1.19150        0.00300
N          0.10180       -2.22510       -0.01040
O          1.40920       -1.68400       -0.02020
H         -0.55480        1.95350        0.89610
H         -0.57170        1.96270       -0.86010
H          1.78430        2.89780        0.00030
H          3.27630        0.72190       -0.02550
H         -1.78180       -1.39420        0.01220
