9
gdb 21326	6.50189	1.66798	1.32744	3.0601	56.88	-0.2885	-0.1329	0.1556	799.6545	0.049541	-388.530284	-388.524364	-388.52342	-388.560637	20.332
N          0.03040       -1.13270       -0.00370
C         -0.00330        0.02190        0.00290
C         -0.04790        1.46320        0.01110
N         -1.24050        2.05320        0.03010
C         -1.15090        3.37770        0.03610
N         -0.01230        4.08030        0.02480
N          1.12850        3.41280        0.00600
N          1.13720        2.09310       -0.00120
H         -2.07260        3.95210        0.05140
