14
gdb 21196	5.30842	1.68458	1.28904	2.5174	68.49	-0.2228	-0.0567	0.1661	903.5888	0.108954	-374.918944	-374.911644	-374.910699	-374.951628	25.405
C         -0.02110        1.44730        0.00520
N          0.03890        0.00120        0.06290
C          0.63850       -0.68800        1.05790
N          0.61050       -2.03790        0.96510
C          1.20750       -2.66320        1.96070
C          1.80900       -1.95950        3.00840
N          1.79780       -0.62980        3.03340
N          1.20780        0.03040        2.05080
H          0.98060        1.88830       -0.02600
H         -0.56370        1.73400       -0.89750
H         -0.53780        1.86030        0.87760
H         -0.37520       -0.55530       -0.66500
H          1.21340       -3.75130        1.93400
H          2.30400       -2.45700        3.83440
