16
gdb 14077	3.78706	1.64832	1.362	3.9265	67.88	-0.2363	0.0155	0.2517	939.8087	0.129965	-379.891777	-379.883997	-379.883053	-379.923728	28.812
C         -0.03740        1.48010       -0.16310
C          0.03320       -0.01370        0.00950
O          1.34080       -0.61530       -0.02900
C          0.63140       -0.64750        1.18630
C          1.12020       -0.06880        2.52980
N          0.75590       -1.37460        3.11790
C          0.20590       -1.89230        1.93870
N         -0.42120       -2.93060        1.58720
H          0.74490        1.98070        0.41330
H          0.08860        1.74930       -1.21670
H         -1.01250        1.85660        0.16460
H         -0.72220       -0.59660       -0.51840
H          2.18910        0.15610        2.58220
H          0.53950        0.78320        2.90140
H          0.39310       -1.51780        4.04900
H         -0.58250       -3.56610        2.37030
