23
gdb 6554	2.95614	1.52968	1.37714	1.2193	82.03	-0.2154	0.0749	0.2903	1076.1004	0.209867	-330.297738	-330.287947	-330.287003	-330.331673	37.189
C          2.23830        0.54480       -0.98890
N          3.04550        0.05870        0.11790
C          3.65990        1.02420        1.01920
C          2.61820        0.07820        1.51790
C          1.26270        0.47150        2.12870
C          0.67960        1.82140        1.67250
C          0.24860       -0.65120        1.82720
C          1.49120        0.54370        3.65520
H          2.87970        0.60840       -1.87510
H          1.44120       -0.17260       -1.20920
H          1.78470        1.53440       -0.83910
H          4.71250        0.87500        1.25180
H          3.37360        2.06920        0.90390
H          3.00010       -0.80650        2.03140
H         -0.21360        2.04780        2.26560
H          1.38530        2.64380        1.82200
H          0.37520        1.81600        0.62410
H          0.62430       -1.62290        2.16510
H         -0.70220       -0.46330        2.33800
H          0.04390       -0.72760        0.75490
H          2.20210        1.33660        3.91050
H          0.55060        0.75240        4.17610
H          1.88640       -0.40030        4.04510
