18
gdb 13399	5.73058	1.1163	1.00225	1.1721	70.76	-0.2324	0.0175	0.2498	1194.4932	0.153279	-384.926783	-384.918527	-384.917583	-384.960245	29.136
C         -0.09360        1.41310        0.62030
O         -0.18380        0.01740        0.77570
C          0.93470       -0.66880        0.26000
C          0.69850       -2.16650        0.46980
O          1.76710       -2.89260       -0.14020
C          2.37090       -3.77430        0.80480
C          1.66150       -3.50280        2.10180
C          0.70950       -2.59730        1.91110
H         -0.01900        1.70070       -0.44030
H         -1.00230        1.85000        1.04170
H          0.77920        1.82780        1.14910
H          1.06430       -0.46770       -0.81580
H          1.86200       -0.36500        0.77290
H         -0.25510       -2.42470       -0.01920
H          2.25280       -4.81910        0.47450
H          3.45210       -3.57440        0.85970
H          1.91570       -3.99880        3.03010
H          0.02360       -2.19260        2.64250
