18
gdb 13440	3.59425	1.19612	1.08911	4.0207	68.83	-0.2405	-0.0146	0.2259	1144.408	0.15108	-384.929392	-384.920194	-384.91925	-384.96428	32.218
C          0.04490        1.63090       -0.03290
C          0.09350        0.11830       -0.01870
C          1.41150       -0.62220       -0.13090
O          2.61040        0.09710       -0.10160
C          0.64230       -0.66660        1.16320
C          1.18070        0.00830        2.41000
C          1.92620       -0.96020        3.30930
O          2.90080       -0.68440        3.95750
H          0.98090        2.06670        0.32320
H         -0.12870        2.00110       -1.04950
H         -0.76700        2.01110        0.59620
H         -0.74400       -0.35630       -0.52450
H          1.44350       -1.52800       -0.73610
H          2.73010        0.51980       -0.95850
H          0.13340       -1.60660        1.36610
H          1.84790        0.84030        2.18360
H          0.34360        0.40320        3.00670
H          1.48230       -1.98430        3.35230
