17
gdb 1314	3.23345	2.60446	2.10715	1.0048	60.09	-0.2515	0.0751	0.3266	720.2405	0.146617	-346.844016	-346.836105	-346.835161	-346.875318	29.716
C          0.33650        1.47030       -0.08380
C         -0.01680       -0.01080       -0.01460
O         -1.41840       -0.20550        0.01330
C          0.79850       -0.89780       -1.01120
C          1.77530       -1.24070        0.14650
C          0.68100       -0.76480        1.14100
O          1.03890        0.03480        2.24270
H          1.41770        1.63050       -0.06980
H         -0.05340        1.90500       -1.01300
H         -0.09600        2.00230        0.76700
H         -1.81750        0.37750       -0.64100
H          0.20410       -1.75950       -1.32340
H          1.21450       -0.40650       -1.89400
H          2.12320       -2.27220        0.23180
H          2.63780       -0.56950        0.17360
H          0.03620       -1.60200        1.44040
H          1.36610       -0.53800        2.94240
