14
gdb 9202	6.24465	0.89297	0.84357	4.252	60.17	-0.2692	0.002	0.2712	1293.1131	0.105594	-415.882939	-415.873898	-415.872954	-415.918453	29.699
O          0.02610        1.35460        0.13420
C         -0.01370       -0.04410        0.03820
C         -1.46870       -0.50140        0.17220
O         -2.31560        0.12280        0.77010
N         -1.71760       -1.71520       -0.42390
C         -2.99950       -2.36970       -0.26820
C         -2.88490       -3.67750        0.39010
N         -2.77790       -4.71630        0.88400
H          0.93430        1.61920        0.30490
H          0.40340       -0.41050       -0.91520
H          0.54700       -0.53880        0.84830
H         -0.98190       -2.20070       -0.91120
H         -3.61510       -1.69740        0.33810
H         -3.50330       -2.50640       -1.23260
