20
gdb 13719	4.81629	0.95159	0.86994	1.7726	72.31	-0.2273	0.0752	0.3024	1390.3122	0.175154	-386.111635	-386.102346	-386.101402	-386.146251	33.533
C         -0.42910        1.19570       -0.10720
C          0.25610       -0.16680        0.02460
C          0.68160       -0.73120       -1.32270
O          1.33110       -1.98380       -1.10690
C          1.76190       -2.57930       -2.29760
C          2.06610       -4.05200       -2.21350
C          0.80560       -3.57570       -2.90570
O         -0.43490       -3.74750       -2.29110
H          0.23790        1.93540       -0.56340
H         -1.32850        1.13210       -0.72940
H         -0.72960        1.57940        0.87180
H          1.14210       -0.08860        0.66480
H         -0.41750       -0.88270        0.51060
H         -0.18640       -0.86530       -1.98540
H          1.37630       -0.03990       -1.82670
H          2.37580       -1.93720       -2.92900
H          2.88720       -4.44300       -2.80440
H          1.93980       -4.51410       -1.23980
H          0.72780       -3.66690       -3.98390
H         -0.35770       -3.33730       -1.41910
