18
gdb 12401	2.97496	2.02718	1.3191	3.1549	67.57	-0.2558	-0.0247	0.2312	936.337	0.155326	-384.983886	-384.976485	-384.975541	-385.015413	28.797
O          0.04800        1.40010        0.12370
C          0.00690        0.00580        0.01230
C         -1.44010       -0.52780        0.00850
C         -1.47510       -2.04870       -0.18640
C         -0.77940       -2.45960       -1.49180
C          0.67480       -1.93930       -1.54630
C          0.72120       -0.45480       -1.25660
O          1.25490        0.36270       -1.97720
H          0.57120        1.69780       -0.63870
H          0.53870       -0.46090        0.86220
H         -1.92380       -0.23280        0.94460
H         -1.98430       -0.02720       -0.80230
H         -0.98160       -2.54160        0.66250
H         -2.51180       -2.40130       -0.18850
H         -0.78080       -3.54810       -1.60880
H         -1.33600       -2.05130       -2.34480
H          1.26700       -2.45230       -0.77600
H          1.14710       -2.12720       -2.51350
