17
gdb 1793	3.84315	2.02041	1.68088	2.0074	60.51	-0.2437	0.0723	0.3161	814.1813	0.146075	-346.834502	-346.826296	-346.825352	-346.866448	30.432
C          0.07010        1.47800       -0.25380
C         -0.01110        0.02450        0.22610
C         -1.40890       -0.55320        0.13110
O         -2.36410        0.05430        0.96490
C         -1.91300       -1.10940       -1.19250
C         -1.61290       -2.02450       -0.01810
O         -0.47780       -2.83890       -0.04020
H          1.09090        1.86240       -0.17090
H         -0.23940        1.56950       -1.30080
H         -0.57120        2.13280        0.34700
H          0.66990       -0.60700       -0.35080
H          0.31210       -0.03820        1.27220
H         -2.57770        0.91490        0.58860
H         -2.95310       -0.94580       -1.45300
H         -1.21700       -1.12930       -2.02510
H         -2.47160       -2.42980        0.51580
H         -0.63370       -3.54470       -0.67610
