17
gdb 20729	3.25951	1.97017	1.25082	2.9725	71.56	-0.2001	0.0431	0.2432	965.3539	0.142791	-360.075643	-360.066885	-360.065941	-360.108707	31.357
C         -0.11660        1.47040       -0.06160
C         -0.06470       -0.02180        0.02790
N         -0.08020       -0.76330       -1.07420
N         -0.01680       -2.04080       -0.61960
C          0.04760       -2.11780        0.73340
N          0.06660       -3.35930        1.38380
C          0.02110       -0.81690        1.20550
C          0.08690       -0.35970        2.62920
H          0.75650        1.93490        0.41220
H         -0.14180        1.77690       -1.10940
H         -1.00490        1.87450        0.43790
H         -0.08880       -2.80400       -1.26960
H          0.87930       -3.91880        1.14710
H          0.03400       -3.24760        2.38890
H          0.50640       -1.13520        3.28130
H          0.72500        0.52440        2.73580
H         -0.89680       -0.09380        3.03750
