21
gdb 9307	3.93469	0.94849	0.80255	0.6874	78.97	-0.2416	0.0349	0.2765	1490.2865	0.186253	-366.276991	-366.266595	-366.265651	-366.313666	35.608
C         -0.07910        1.75630        1.37840
C         -0.04660        0.28580        0.95720
C          0.96670       -0.53960        1.76000
N          0.89660       -1.93810        1.38580
C          1.94020       -2.58670        1.08160
C          3.38080       -2.12720        1.04710
O          1.86020       -3.89260        0.72930
C          0.55540       -4.46650        0.72590
H          0.89750        2.23430        1.24050
H         -0.80950        2.32160        0.79160
H         -0.35000        1.86110        2.43510
H         -1.03620       -0.16870        1.07930
H          0.19870        0.20450       -0.10910
H          1.96840       -0.09690        1.64160
H          0.71600       -0.45730        2.82790
H          3.71910       -1.83990        2.04710
H          4.01750       -2.93100        0.67800
H          3.49780       -1.25540        0.39750
H         -0.10100       -3.94190        0.02560
H          0.69070       -5.50520        0.41990
H          0.10260       -4.41450        1.72020
