19
gdb 9666	4.40174	1.15586	1.08649	3.1108	73.96	-0.2371	-0.0208	0.2164	1170.0381	0.162745	-365.050852	-365.0416	-365.040656	-365.08488	32.999
C         -0.03940        1.56370       -0.14440
C          0.02870        0.09350        0.26240
N         -1.28930       -0.52250        0.11940
C         -1.61830       -1.17030       -1.12880
C         -1.41410       -1.99320        0.11900
C         -0.23740       -2.93640        0.24120
C         -2.66110       -2.42920        0.82400
O         -2.81800       -3.51340        1.32680
H          0.93230        2.04610       -0.00210
H         -0.31670        1.66520       -1.19870
H         -0.78500        2.09420        0.45390
H          0.80260       -0.41800       -0.33150
H          0.32160        0.00950        1.31500
H         -2.61430       -0.98720       -1.52610
H         -0.83840       -1.27590       -1.88330
H          0.58370       -2.66470       -0.42390
H          0.13870       -2.96140        1.26900
H         -0.56320       -3.94990       -0.00570
H         -3.44990       -1.64510        0.84540
