19
gdb 2148	3.43018	2.83269	1.81503	0.1293	71.81	-0.2345	0.0292	0.2637	772.1444	0.172517	-273.803873	-273.79658	-273.795636	-273.834701	28.207
C         -0.68380        1.31860       -0.04450
C          0.09130        0.00210       -0.04440
C          1.25930       -0.06070       -1.06410
C          2.21340       -1.04060       -0.42430
C          1.91070       -1.26160        0.85380
C          0.72420       -0.44100        1.31600
C          1.17210        0.70280        2.24470
H         -0.04130        2.16950        0.20470
H         -1.11520        1.51180       -1.03260
H         -1.50890        1.30090        0.67610
H         -0.60510       -0.79840       -0.32400
H          0.92020       -0.37140       -2.05930
H          1.73810        0.92120       -1.19900
H          3.05420       -1.47500       -0.95450
H          2.47150       -1.89910        1.53000
H          0.00700       -1.05590        1.87560
H          1.87920        1.37210        1.74320
H          0.32160        1.29980        2.58870
H          1.67470        0.30020        3.13050
