15
gdb 4740	6.99473	1.24763	1.06577	2.9414	74.58	-0.2238	-0.0426	0.1812	1065.9241	0.119835	-362.727977	-362.72048	-362.719536	-362.760126	27.012
C         -0.00460        1.54140       -0.01360
C         -0.00080        0.04190        0.01510
C         -0.08140       -0.80160       -1.08680
N         -0.04780       -2.08880       -0.65790
C          0.05390       -2.11680        0.71290
C          0.10750       -3.37680        1.41600
O          0.06780       -4.46220        0.86300
C          0.08460       -0.79790        1.15010
H          0.91100        1.95720        0.42160
H         -0.08150        1.91540       -1.03850
H         -0.84660        1.95520        0.55260
H         -0.15960       -0.56060       -2.13620
H         -0.08820       -2.92920       -1.21160
H          0.18930       -3.28870        2.51940
H          0.16070       -0.48430        2.18140
