16
gdb 17949	3.25492	2.29631	2.09968	1.0367	62.99	-0.2213	0.0703	0.2916	737.2545	0.131864	-383.69861	-383.692257	-383.691313	-383.72868	25.67
O         -0.07390        1.41410       -0.05370
C          0.03340        0.04080       -0.02760
C         -1.05340       -1.02170        0.06980
C         -0.46640       -1.78180       -1.11870
C          0.81590       -0.89120       -1.01200
C          1.83930       -1.55600       -0.09350
O          1.12270       -1.78330        1.13260
C          0.03900       -0.87890        1.13770
H          0.64230        1.78950        0.47070
H         -2.10110       -0.91300        0.32630
H         -0.31710       -2.85980       -0.99890
H         -1.02240       -1.58980       -2.03910
H          1.21180       -0.46290       -1.93160
H          2.19910       -2.52350       -0.45790
H          2.70770       -0.90120        0.08630
H         -0.25870       -0.54650        2.12520
