9
gdb 23850	5.9301	1.66109	1.29761	2.2243	48.11	-0.2879	-0.1279	0.16	795.2733	0.047864	-474.603688	-474.597871	-474.596927	-474.634054	20.816
F          0.07480        0.04450       -0.25530
C         -0.02870        1.32970       -0.01710
N         -1.22240        1.79420        0.06050
O         -1.30940        3.16000        0.31430
C         -0.19510        3.95430        0.47060
O         -0.31920        5.12600        0.68750
C          1.08840        3.23610        0.34630
N          1.17570        1.97710        0.11250
H          1.99250        3.82940        0.46340
