15
gdb 18555	3.96394	2.05423	1.68095	2.8687	61.68	-0.2649	0.0219	0.2868	783.7852	0.121204	-399.800949	-399.794728	-399.793784	-399.831387	23.937
N         -0.10660        1.23540       -0.50560
C         -0.03760        0.05910       -0.08240
O          1.02630       -0.65710        0.43100
C          0.19330       -1.84740        0.61700
C         -0.14930       -2.09790        2.07800
O         -1.12420       -1.12040        2.41330
C         -1.96470       -0.96150        1.27580
C         -1.03250       -1.07550        0.06280
H          0.79260        1.71430       -0.43360
H          0.60110       -2.69970        0.07320
H         -0.55220       -3.11940        2.18570
H          0.70430       -1.97780        2.74920
H         -2.73020       -1.75310        1.23720
H         -2.45880        0.00900        1.35370
H         -1.51290       -1.41340       -0.85400
