15
gdb 2760	3.70344	2.59658	1.83813	1.3838	62.46	-0.2532	0.039	0.2922	717.7369	0.124524	-308.472272	-308.465278	-308.464334	-308.502955	26.553
O          0.44560        0.96180       -0.69210
C          0.06580       -0.17240        0.02140
C         -0.07380       -0.12930        1.56640
C         -1.29190       -1.08070        1.44360
C         -1.42830       -0.68190       -0.06470
C         -2.34800        0.41220       -0.30510
C         -3.04990        1.37100       -0.50220
H         -0.27470        1.60250       -0.62200
H          0.73910       -0.97720       -0.28800
H          0.78150       -0.45220        2.16340
H         -0.37970        0.86870        1.89370
H         -1.01200       -2.13240        1.54040
H         -2.15600       -0.88140        2.07740
H         -1.61360       -1.49670       -0.76980
H         -3.70660        2.18680       -0.67910
