20
gdb 7643	3.79465	1.3868	1.30522	1.5614	71.24	-0.2509	0.0781	0.329	1059.1632	0.176058	-386.13565	-386.126876	-386.125932	-386.168949	32.857
C          0.02620        1.51370        0.11820
C         -0.00470       -0.01680        0.13950
O          0.48740       -0.52690        1.37080
C         -1.41080       -0.55570       -0.12020
C         -1.63480       -2.07840       -0.05180
C         -2.65340       -1.74550        1.05950
C         -2.48580       -2.38670        2.42070
O         -2.25460       -0.34470        1.04530
H          1.02490        1.87200        0.37970
H         -0.23700        1.90180       -0.87160
H         -0.68890        1.91850        0.84260
H          0.66240       -0.41160       -0.63780
H         -0.20480       -0.32970        2.01630
H         -1.84510       -0.07870       -1.00950
H         -2.02730       -2.55570       -0.95040
H         -0.75990       -2.62090        0.31130
H         -3.69600       -1.83120        0.72370
H         -1.44050       -2.34340        2.74150
H         -3.10370       -1.87570        3.16610
H         -2.79360       -3.43750        2.38560
