17
gdb 2307	6.76382	1.38899	1.26142	0.8682	70.14	-0.2552	0.0586	0.3138	972.4627	0.146815	-272.539058	-272.531105	-272.530161	-272.571238	29.187
C          0.09500        1.56930       -0.19840
C          0.04460        0.06790       -0.01050
C          1.30510       -0.76580       -0.02350
C          0.50870       -0.62830        1.24990
C          1.06970        0.13300        2.44470
C          1.90870       -0.70380        3.29820
C          2.58950       -1.40910        3.99380
H          1.00200        2.00800        0.22770
H          0.08480        1.82360       -1.26400
H         -0.76510        2.06350        0.26770
H         -0.82090       -0.39490       -0.47880
H          1.30860       -1.71860       -0.54120
H          2.25010       -0.23240       -0.07510
H         -0.06950       -1.50020        1.54240
H          1.65390        0.99540        2.10390
H          0.24540        0.54490        3.04280
H          3.19600       -2.02490        4.61010
