15
gdb 2374	4.71503	2.07231	1.76569	3.2276	58.7	-0.2418	-0.0222	0.2196	754.2813	0.123643	-345.663783	-345.656536	-345.655591	-345.695086	26.572
C         -0.00290        1.44120        0.01810
C          0.02120       -0.07080       -0.03970
O          1.07840       -0.68900       -0.05780
C         -1.27970       -0.76910       -0.03820
C         -1.38440       -2.09790       -0.80290
C         -1.31350       -2.14820        0.67610
O         -0.21150       -2.61920        1.35450
H          1.01530        1.83080        0.03870
H         -0.53810        1.84490       -0.84890
H         -0.54550        1.77480        0.91000
H         -2.16770       -0.14970        0.01750
H         -2.32620       -2.29730       -1.30200
H         -0.49260       -2.38620       -1.34980
H         -2.22540       -2.35440        1.22740
H          0.57250       -2.24330        0.91570
