11
gdb 132	22.23659	2.16652	2.13287	1.4229	39.92	-0.2536	-0.0285	0.225	550.4469	0.089449	-268.282665	-268.276602	-268.275658	-268.312338	19.422
O          0.15250        1.40590       -0.21770
C          0.09890        0.00930       -0.00040
C         -1.34580       -0.51510        0.10340
C         -1.39590       -2.02500        0.10430
O         -1.79900       -2.70180        1.01480
H         -0.19450        1.84270        0.56670
H          0.59840       -0.44480       -0.86330
H          0.66540       -0.28470        0.89570
H         -1.83510       -0.14610        1.01040
H         -1.89570       -0.14750       -0.77300
H         -1.00690       -2.49660       -0.82880
