14
gdb 8249	6.05274	1.13493	1.01375	3.943	63.68	-0.274	0.0061	0.28	1098.859	0.105739	-382.533469	-382.525903	-382.524959	-382.565911	27.331
O          0.29600        0.15050       -0.73370
C          0.09240        1.16940       -0.15970
C         -1.10180        2.05520        0.20070
C         -0.02960        2.94730        0.85240
C         -0.08510        3.11860        2.36740
C          1.08600        3.79660        2.90780
C          2.05420        4.36510        3.33400
O          1.01080        1.99400        0.44290
H         -1.63070        2.47230       -0.65720
H         -1.81630        1.58870        0.88210
H          0.14250        3.90410        0.35480
H         -0.99240        3.68810        2.61010
H         -0.19950        2.13060        2.83100
H          2.91320        4.85840        3.71670
