20
gdb 15270	2.41236	1.76264	1.2618	2.9247	71.49	-0.2445	0.0711	0.3156	1059.2655	0.175878	-386.108732	-386.099376	-386.098432	-386.142737	33.686
C          0.02350        1.11050       -0.09150
O         -0.16120       -0.11860        0.58650
C         -1.37790       -0.74170        0.28310
C         -1.44080       -1.76490       -0.83120
C         -0.26200       -2.00960       -1.75030
C         -1.45260       -2.19900        0.63260
C         -0.25700       -2.84310        1.31310
O         -0.01650       -2.28650        2.59650
H          0.98890        1.51210        0.22440
H          0.02650        0.97440       -1.18110
H         -0.76590        1.83100        0.16850
H         -2.24670       -0.10720        0.46310
H         -2.40620       -1.83680       -1.32640
H          0.68210       -1.71850       -1.28510
H         -0.18810       -3.06450       -2.03560
H         -0.36960       -1.42640       -2.67150
H         -2.41020       -2.53010        1.02450
H         -0.45240       -3.90850        1.47410
H          0.63690       -2.77230        0.68070
H          0.16680       -1.35200        2.44130
