17
gdb 1474	6.7384	1.33502	1.22344	4.1783	65.7	-0.2359	0.023	0.2589	992.8362	0.147412	-305.898313	-305.88997	-305.889026	-305.931055	29.115
C          0.03100        1.54000        0.04110
C         -0.03430        0.01450        0.00140
N         -1.40380       -0.50420       -0.03190
C         -2.11650       -0.16790       -1.25990
C         -1.41160       -1.93960        0.21420
C         -2.76510       -2.45400        0.45880
N         -3.82510       -2.87380        0.64410
H          1.06470        1.86060        0.20150
H         -0.31000        1.99530       -0.89250
H         -0.58380        1.92800        0.85830
H          0.56020       -0.36190       -0.85490
H          0.43990       -0.38030        0.90740
H         -1.61840       -0.56470       -2.16500
H         -3.13000       -0.57500       -1.21950
H         -2.19850        0.91560       -1.36070
H         -0.97230       -2.52980       -0.61490
H         -0.80830       -2.15140        1.10390
