17
gdb 20187	3.37046	2.70122	2.02753	0.4407	66.46	-0.2032	0.0808	0.284	724.2515	0.145548	-363.802118	-363.796179	-363.795235	-363.831909	24.391
C          0.02960        1.53210       -0.06630
C          1.55160        1.53950       -0.12070
C          2.16320        0.66940        0.96190
O          1.75580        0.53570        2.29310
C          0.37440        0.27010        2.52770
C         -0.30930       -0.49370        1.38370
N          0.02130        0.03240        0.05400
C          1.48340       -0.00090       -0.17150
H         -0.45680        2.08870        0.74050
H         -0.43020        1.82340       -1.01610
H          2.15890        2.21150       -0.71500
H          3.24890        0.66250        0.93040
H          0.32660       -0.31210        3.45400
H         -0.14840        1.21880        2.71580
H         -0.00340       -1.54620        1.39290
H         -1.39460       -0.46590        1.53590
H          1.91810       -0.72820       -0.85000
