15
gdb 8344	5.00528	1.44207	1.35957	4.7947	65.38	-0.2519	0.0282	0.2801	919.3197	0.118868	-362.608058	-362.601123	-362.600179	-362.639635	25.987
N          0.04770       -1.17260        0.10370
C          0.06010       -0.01830        0.14040
C          0.07850        1.44340        0.16700
C          1.46440        2.01380       -0.02880
C          2.55960        1.66050       -1.06820
C          3.15040        2.59740        0.01080
C          1.89840        3.50170       -0.08280
O          2.45540        1.79460        1.04860
H         -0.58310        1.82160       -0.62060
H         -0.32010        1.79370        1.12560
H          2.91010        0.62920       -1.03180
H          2.44910        2.04670       -2.08440
H          4.18690        2.86960        0.20060
H          1.72770        4.05650       -1.00880
H          1.67730        4.08000        0.81510
