18
gdb 8274	5.32611	1.08682	0.99282	4.3933	73.22	-0.2362	0.0234	0.2596	1196.3072	0.153875	-343.97339	-343.965112	-343.964167	-344.006538	29.853
C         -0.15020        1.55150       -0.05950
C         -0.06410        0.03120       -0.01230
C          1.09660       -0.58260       -0.84290
N          1.89730       -0.65950        0.39580
C          2.76460       -1.80230        0.57110
C          3.48540       -1.73930        1.84840
N          4.03850       -1.70110        2.86160
C          0.67900       -0.54290        1.22540
H          0.82910        2.00290        0.12910
H         -0.50020        1.89620       -1.03850
H         -0.84750        1.92880        0.69600
H         -1.04130       -0.41700       -0.20180
H          0.83710       -1.57120       -1.25630
H          1.54120        0.02920       -1.63590
H          2.22550       -2.77030        0.53370
H          3.50250       -1.81850       -0.24030
H          0.78700        0.09980        2.10490
H          0.27600       -1.51850        1.54180
