15
gdb 12836	3.2182	2.43001	1.77241	2.5989	61.16	-0.2477	-0.0015	0.2462	761.861	0.119865	-399.763927	-399.757264	-399.75632	-399.794438	25.88
O         -0.20210        1.40830       -0.10640
C         -0.07880        0.00200       -0.10490
C          1.14240       -0.53850       -0.92350
O          1.86130       -0.82820        0.35250
C          0.67440       -0.64400        1.01490
N          0.09210       -1.15430        2.00820
C         -1.35200       -0.85970        1.71420
C         -1.44940       -0.62820        0.15620
H          0.64350        1.79790        0.14440
H          0.99550       -1.46750       -1.47870
H          1.67950        0.20510       -1.51510
H         -1.94660       -1.71770        2.03600
H         -1.69480        0.01520        2.27790
H         -2.27490        0.01940       -0.14470
H         -1.54870       -1.59380       -0.34780
