10
gdb 741	9.57415	3.68605	2.7061	1.0701	43.3	-0.2916	-0.0228	0.2687	460.9254	0.074202	-301.357553	-301.352551	-301.351607	-301.385939	17.13
C         -0.01430        1.48750        0.02940
C          0.00050       -0.00130       -0.00640
N         -0.10400       -0.67880       -1.12010
O         -0.04440       -2.01630       -0.69950
C          0.08920       -1.97780        0.62490
N          0.12500       -0.78630        1.12700
H          0.91460        1.86370        0.46790
H         -0.12600        1.88910       -0.97850
H         -0.83950        1.84170        0.65400
H          0.15330       -2.92460        1.14140
