16
gdb 12211	4.0741	1.51221	1.18775	5.1139	70.04	-0.2473	-0.0199	0.2274	1013.762	0.130528	-379.946115	-379.938002	-379.937058	-379.979003	28.486
C         -0.09670        1.59910       -0.01030
C          0.01770        0.08030       -0.02310
C          0.83350       -0.58760       -1.16950
N          1.75010       -1.11850       -0.14730
C          2.87690       -1.90750       -0.29650
N          3.58480       -2.29240        0.68360
C          1.07060       -0.52470        0.93270
O          1.27240       -0.50500        2.10960
H          0.87730        2.07080       -0.17650
H         -0.78350        1.95060       -0.78650
H         -0.47230        1.94020        0.95850
H         -0.96080       -0.38710        0.12160
H          0.30830       -1.36220       -1.73600
H          1.30990        0.11650       -1.85930
H          3.05780       -2.14210       -1.35420
H          4.36140       -2.86070        0.34950
