16
gdb 11057	3.49014	2.33863	1.99745	1.4659	63.6	-0.2418	0.0042	0.246	732.6151	0.132007	-383.728551	-383.722225	-383.721281	-383.758463	26.108
O         -0.06110        1.38180        0.01090
C          0.00090       -0.01570       -0.02410
C          0.64920       -0.70960        1.22370
O          0.16820       -2.05140        1.16130
C         -0.68830       -2.10890       -0.02520
C         -1.36820       -0.73320        0.01390
C          0.21730       -1.96260       -1.23900
C          0.63650       -0.69300       -1.23190
H          0.83660        1.72980       -0.00980
H          1.74630       -0.69340        1.19280
H          0.30610       -0.22210        2.14510
H         -1.29960       -3.00530        0.05330
H         -1.92930       -0.55670        0.93510
H         -1.97620       -0.51030       -0.86320
H          0.54570       -2.77170       -1.87830
H          1.37900       -0.22560       -1.86820
