16
gdb 2282	8.1579	1.38315	1.26283	2.9381	62.21	-0.2278	-0.0238	0.204	935.2086	0.136017	-325.754109	-325.74684	-325.745896	-325.786187	25.312
O         -0.32470        0.04140        0.30810
C         -0.08830        1.17140       -0.02940
C          1.30560        1.77300       -0.11820
N          1.39410        2.73420       -1.18990
C          1.57250        2.25500       -2.57900
C          2.48720        3.47430       -2.84350
C          2.59790        3.58390       -1.30320
H         -0.89500        1.89050       -0.29840
H          1.47280        2.30130        0.83300
H          2.04570        0.95400       -0.17210
H          2.12350        1.30170       -2.63460
H          0.64870        2.16120       -3.15900
H          3.40820        3.29540       -3.39800
H          1.95060        4.31460       -3.28690
H          2.50630        4.57280       -0.84180
H          3.50940        3.09670       -0.92070
