16
gdb 4769	4.9214	1.29662	1.05246	1.5079	68.14	-0.2147	0.0185	0.2332	1100.9877	0.130368	-383.768265	-383.760255	-383.759311	-383.801104	28.778
C         -0.17830        1.47690        0.00390
C         -0.03390       -0.01320       -0.00060
C          0.27310       -0.80890       -1.05880
O          0.31220       -2.12220       -0.68980
C          0.03260       -2.16630        0.64170
C          0.01420       -3.51320        1.29200
O         -0.78880       -3.52590        2.45840
C         -0.19070       -0.91080        1.11420
H          0.52870        1.94650        0.69720
H          0.00300        1.89490       -0.99020
H         -1.18360        1.78220        0.31580
H          0.47990       -0.60810       -2.09740
H         -0.30370       -4.26370        0.55110
H          1.01800       -3.80460        1.62530
H         -1.66390       -3.21190        2.20580
H         -0.42530       -0.65100        2.13490
