17
gdb 5525	3.10394	1.8364	1.23493	1.5641	71.79	-0.1857	0.0298	0.2155	994.317	0.142767	-363.892451	-363.884258	-363.883313	-363.925551	30.025
C         -0.32670        1.58570       -0.12010
C          0.11430        0.11880        0.02850
C          0.88400       -0.39800       -1.13670
C          2.14610       -0.90030       -1.29240
N          3.11750       -1.14490       -0.30510
C          2.28220       -1.23500       -2.68400
C          1.09990       -0.91140       -3.26550
O          0.23700       -0.40950       -2.35270
H          0.53920        2.24740       -0.22090
H         -0.94770        1.71060       -1.01130
H         -0.90800        1.90910        0.74910
H          0.73350        0.00550        0.92620
H         -0.77300       -0.50670        0.19900
H          2.95670       -0.61210        0.54030
H          4.05450       -0.95070       -0.63580
H          3.14620       -1.66530       -3.16690
H          0.73270       -0.97660       -4.27670
