13
gdb 2808	3.84119	2.37428	1.62106	0.8669	66.13	-0.2417	0.0296	0.2713	752.2044	0.099647	-270.099401	-270.092307	-270.091363	-270.130219	26.503
C         -0.13960       -1.21350       -0.00440
C         -0.06400       -0.01380        0.01890
C          0.00410        1.41580        0.03300
C          0.48870        2.15630        1.25970
C          1.36100        2.14570        0.02390
C          2.59120        1.41460        0.00110
C          3.63350        0.81600       -0.02930
H         -0.19760       -2.27340       -0.02280
H         -0.76750        1.91410       -0.54670
H         -0.00830        3.08350        1.52040
H          0.81830        1.55400        2.09680
H          1.36430        3.06090       -0.56090
H          4.54940        0.27980       -0.05430
