15
gdb 18305	3.48538	2.48445	1.6192	4.2892	66.84	-0.2415	-0.035	0.2066	776.8534	0.121662	-362.684642	-362.678503	-362.677559	-362.7149	23.806
O         -0.04850        0.03750        0.44100
C         -0.08460        1.20060        0.10780
C         -1.28470        2.05770       -0.14060
C         -0.92780        3.34710       -0.13880
C          0.56270        3.45050       -0.03310
C          1.30760        3.69010        1.32850
C          1.91800        2.27430        1.15090
N          1.02670        2.04890       -0.02410
H         -2.27920        1.64180       -0.22520
H         -1.58040        4.20380       -0.25710
H          0.98830        4.04080       -0.85390
H          2.00560        4.52810        1.34210
H          0.62660        3.76750        2.17730
H          2.97480        2.26200        0.87280
H          1.74700        1.55200        1.95240
