12
gdb 242	8.55761	2.46723	1.93829	5.1423	49.82	-0.2397	-0.0114	0.2283	621.2041	0.095742	-302.579654	-302.57277	-302.571825	-302.610884	22.603
C         -0.13140        1.54480        0.01240
C          0.18720        0.05450        0.00080
O          1.30750       -0.38610       -0.01280
N         -0.96670       -0.73680        0.00780
C         -1.08490       -2.12530        0.00110
N         -0.10950       -2.93280       -0.01230
H          0.80680        2.09800        0.00710
H         -0.72210        1.82730       -0.86580
H         -0.70630        1.81710        0.90410
H         -1.84190       -0.23790        0.01910
H         -2.14540       -2.41120        0.00920
H         -0.46080       -3.88940       -0.01440
