19
gdb 15656	3.31114	1.6878	1.22957	1.6637	71.45	-0.2434	0.0247	0.2681	1026.5825	0.166012	-365.08891	-365.080585	-365.07964	-365.122432	30.383
C          0.03680        1.61290        0.00740
C          0.05570        0.08270        0.05210
C          0.68360       -0.52670       -1.20650
N          2.10760       -0.14470       -1.33530
C          2.73740       -1.21540       -1.57660
O          2.07860       -2.39280       -1.65150
C          0.69070       -2.09090       -1.31040
C          0.32090       -2.89090       -0.06940
H          1.05010        2.00540       -0.10600
H         -0.55900        1.97550       -0.83790
H         -0.39670        2.02670        0.92290
H          0.61290       -0.25260        0.93400
H         -0.96780       -0.29740        0.16030
H          0.15460       -0.11160       -2.07510
H          3.80750       -1.29210       -1.73880
H          0.08620       -2.42690       -2.15790
H          0.93250       -2.60080        0.78910
H         -0.73150       -2.74090        0.18830
H          0.47750       -3.95660       -0.25650
