18
gdb 6100	4.79209	0.96139	0.82706	2.6324	65.76	-0.2405	0.0609	0.3014	1363.2141	0.153133	-418.302005	-418.292538	-418.291594	-418.33681	34.051
C          0.01350        1.52830        0.03340
C         -0.05080        0.00490        0.00080
O          0.76620       -0.58140        1.02050
C         -1.48370       -0.52060        0.10650
N         -1.46550       -1.96920        0.11000
C         -2.62790       -2.67970       -0.07120
N         -2.49710       -4.04530        0.17080
O         -3.68350       -2.16700       -0.39640
H          1.05190        1.86480       -0.02150
H         -0.53890        1.96400       -0.80510
H         -0.42650        1.91860        0.95970
H          0.38470       -0.36470       -0.93480
H          0.50920       -0.18520        1.86150
H         -1.95510       -0.11520        1.01810
H         -2.09030       -0.18150       -0.73710
H         -0.71990       -2.37410        0.65670
H         -1.59960       -4.46450       -0.02380
H         -3.27710       -4.57080       -0.19480
