16
gdb 9172	8.70534	0.79496	0.73509	2.3786	69.42	-0.2582	-0.0243	0.2339	1494.1911	0.129139	-417.090028	-417.081048	-417.080104	-417.124202	30.832
C          0.17530        1.74280       -0.65100
N         -0.05850        0.37080       -1.05400
C          0.11920       -0.53160       -0.18820
N         -0.08980       -1.86880       -0.51560
C          0.07990       -2.91080        0.35670
O          0.43210       -2.77160        1.51450
C         -0.20160       -4.30460       -0.20350
O          0.00830       -5.26870        0.78170
H          0.49200        1.85120        0.39770
H          0.94370        2.18590       -1.29450
H         -0.73920        2.32770       -0.80090
H          0.43530       -0.38910        0.84880
H         -0.38320       -2.04930       -1.46590
H         -1.23900       -4.33170       -0.57560
H          0.45320       -4.47330       -1.07430
H          0.28130       -4.76710        1.56770
