19
gdb 8538	3.34266	2.24505	1.62722	1.2317	76.36	-0.2036	0.0935	0.2971	861.2294	0.164771	-327.829152	-327.821623	-327.820679	-327.86046	29.486
C         -0.70580        1.42580       -0.41750
N         -0.46330        0.02320       -0.10380
C         -1.22150       -0.60070        1.02150
C         -0.11220       -1.67740        1.21160
C         -0.05170       -1.47560        2.73060
C         -0.31170       -0.04540        2.20150
C         -0.45290        1.17600        3.07490
C          0.57860       -0.31390        0.91170
H          0.09370        1.78420       -1.07530
H         -1.64730        1.50640       -0.97180
H         -0.76280        2.10470        0.44590
H         -2.30450       -0.74460        1.00900
H         -0.00520       -2.57910        0.61070
H         -0.85470       -1.92970        3.32080
H          0.91640       -1.64760        3.21280
H          0.45580        1.32320        3.67060
H         -0.63350        2.09380        2.51160
H         -1.28480        1.04600        3.77720
H          1.64340       -0.11570        0.76820
