10
gdb 3926	8.62562	2.20695	1.75732	5.1595	50.77	-0.2803	-0.074	0.2063	637.6405	0.06787	-355.497878	-355.492468	-355.491524	-355.527272	18.768
O         -0.04300       -0.03470       -0.00010
C         -0.00710        1.15720        0.00880
N          1.17960        1.92450        0.00220
C          1.27890        3.28990        0.01180
C          2.61940        3.53060       -0.00080
N          3.28040        2.32370       -0.01700
N          2.42830        1.35900       -0.01540
H         -0.89370        1.81670        0.02330
H          0.41420        3.93180        0.02600
H          3.15360        4.46610        0.00060
