13
gdb 21465	7.78532	1.19465	1.06107	2.8366	62.66	-0.2373	0.0048	0.2421	1034.5556	0.097482	-394.784066	-394.777225	-394.776281	-394.81593	24.367
N         -0.01120        1.30760        0.25510
C         -0.08450        0.09510       -0.07440
O         -1.02150       -0.69750        0.51100
C         -0.96090       -2.04050        0.25320
C         -2.04830       -2.83670       -0.04040
N         -1.54860       -4.09170       -0.15710
N         -0.22170       -4.16520        0.03350
C          0.14920       -2.91310        0.29290
H          0.71710        1.77090       -0.28430
H          0.52340       -0.43890       -0.81450
H         -3.09320       -2.60410       -0.15890
H         -2.05740       -4.93560       -0.35830
H          1.18210       -2.68300        0.50550
