13
gdb 717	6.18567	5.559	4.35023	1.6597	52.16	-0.2238	0.0883	0.3121	397.6097	0.110471	-249.269471	-249.265191	-249.264247	-249.29668	17.297
C         -0.00140        1.45450        0.11430
C          1.51040        1.39480       -0.01100
C          1.92790        0.08650        0.69530
C          0.63330       -0.53470        1.18830
N         -0.04840       -0.05050       -0.07880
C          1.36760        0.06830       -0.69560
H         -0.46230        1.80970        1.04350
H         -0.47620        1.94110       -0.74170
H          2.23000        2.17940       -0.20970
H          2.95070       -0.07960        1.00990
H          0.66240       -1.62750        1.18500
H          0.17270       -0.18040        2.11790
H          1.68500       -0.34200       -1.64320
