17
gdb 7055	2.68686	1.19216	0.86179	3.855	75.87	-0.2571	0.0227	0.2799	1341.1957	0.139202	-363.837969	-363.828089	-363.827145	-363.874777	32.734
C          0.40810        1.05110       -0.13860
C          0.11400       -0.37270       -0.07660
C         -0.12970       -1.55110       -0.03110
C         -0.42740       -2.98280        0.02080
C         -1.92300       -3.27620       -0.08190
O          0.19490       -3.69690       -1.06740
C          1.54060       -3.77680       -1.03950
N          2.15220       -4.38560       -1.96060
H          0.92670        1.30270       -1.07000
H         -0.50990        1.64730       -0.09860
H          1.04710        1.36400        0.69420
H         -0.04510       -3.39550        0.96610
H         -2.45590       -2.79150        0.73940
H         -2.31380       -2.89720       -1.02880
H         -2.09140       -4.35490       -0.03520
H          1.99480       -3.28000       -0.17230
H          3.15430       -4.36190       -1.78280
