15
gdb 5512	3.40703	1.93873	1.24532	4.6893	73.21	-0.2248	-0.042	0.1828	925.4437	0.119932	-362.712795	-362.705464	-362.70452	-362.744516	26.521
C         -0.02790        1.43900        0.03380
N         -0.00840       -0.01320        0.01540
C         -0.02660       -0.77210       -1.11310
C          0.00010       -2.11240       -0.75960
C          0.03610       -2.16440        0.64300
C          0.03080       -0.85620        1.11830
C          0.05900       -0.38940        2.48910
O          0.09330       -1.11740        3.46160
H          0.86700        1.84080        0.51780
H         -0.05600        1.79910       -0.99570
H         -0.91070        1.81660        0.55790
H         -0.05730       -0.30350       -2.08510
H         -0.00610       -2.94410       -1.44670
H          0.06380       -3.03750        1.27590
H          0.04720        0.71720        2.61420
