18
gdb 12557	3.38231	1.76698	1.23581	2.0467	69.33	-0.2463	0.0073	0.2536	974.0984	0.154604	-384.930563	-384.922825	-384.921881	-384.963477	29.289
O         -0.30650        1.51700       -0.38210
C         -0.05120        0.15770       -0.03920
C         -1.42070       -0.50960        0.09600
C         -1.37870       -1.93820        0.63560
O         -0.90290       -2.89230       -0.29400
C          0.50030       -2.94400       -0.45250
C          1.13000       -1.79010       -1.20260
C          0.88080       -0.49190       -1.04120
H          0.53600        1.98100       -0.41550
H          0.43680        0.11410        0.95340
H         -2.01750        0.10730        0.77790
H         -1.92220       -0.50530       -0.87710
H         -0.78210       -1.98070        1.56410
H         -2.39510       -2.25740        0.88740
H          0.98590       -3.05140        0.53560
H          0.69290       -3.87180       -0.99990
H          1.87820       -2.07760       -1.93820
H          1.42200        0.21680       -1.66670
