20
gdb 17942	3.06526	2.17177	2.01808	0.3331	77.64	-0.2389	0.0903	0.3293	831.2607	0.179671	-311.861715	-311.854806	-311.853861	-311.892262	28.312
C          0.01400        1.53210       -0.04050
C          0.00020        0.03450        0.01210
C          0.48310       -1.02380       -0.97020
C          1.23380       -1.76650        0.13350
C          0.47820       -0.88540        1.18190
C         -0.78490       -1.59120        1.69160
C         -1.60200       -1.86330        0.39770
C         -0.99680       -0.89650       -0.62130
H          1.01670        1.93590        0.14370
H         -0.31170        1.89290       -1.02210
H         -0.65890        1.96690        0.70920
H          0.82080       -0.89280       -1.99310
H          1.10510       -2.85330        0.21100
H          2.30350       -1.54200        0.11030
H          1.09670       -0.43690        1.96080
H         -0.55750       -2.50540        2.25010
H         -1.34130       -0.92650        2.36300
H         -1.51370       -2.90590        0.07280
H         -2.66900       -1.66820        0.54350
H         -1.62000       -0.50850       -1.42090
