12
gdb 21691	3.49395	2.37972	1.41607	0.8246	60.44	-0.2374	-0.0552	0.1823	789.3527	0.084809	-414.66239	-414.655798	-414.654854	-414.692986	24.838
N          0.04010        1.32410        0.08250
C         -0.03410       -0.02260        0.02760
N         -1.20150       -0.60450        0.00880
O         -1.19150       -2.00550       -0.00300
C         -0.05230       -2.68420       -0.00470
C          1.18530       -2.13610       -0.00410
C          1.30010       -0.70860        0.00220
O          2.32590       -0.03930       -0.01840
H          0.96180        1.70890       -0.05780
H         -0.78050        1.88570       -0.06120
H         -0.24860       -3.75180       -0.01030
H          2.06970       -2.75900       -0.01370
