20
gdb 18595	3.30385	1.97159	1.61583	1.5016	73.19	-0.2403	0.0732	0.3135	890.9403	0.179191	-349.005706	-348.998409	-348.997465	-349.037181	28.81
C         -0.76700        1.34340       -0.06590
C         -0.03760        0.00680       -0.05730
C          1.25270       -0.12640       -0.92140
C          2.01500       -0.70980        0.30400
O          3.10760        0.04630        0.78910
C          2.58000        1.16310        1.49560
C          1.29210        0.65950        2.17320
C          0.77640       -0.42460        1.21140
H         -0.09110        2.17780        0.15050
H         -1.21330        1.53250       -1.04850
H         -1.57430        1.36760        0.67490
H         -0.74980       -0.78460       -0.31210
H          1.18230       -0.78230       -1.79260
H          1.66870        0.83140       -1.24790
H          2.35010       -1.74350        0.19690
H          3.34460        1.50350        2.19910
H          2.36160        1.99450        0.80630
H          1.53390        0.20400        3.13800
H          0.57470        1.46370        2.35600
H          0.35010       -1.27150        1.75190
