16
gdb 3162	3.76357	2.74103	1.90846	1.4489	60.66	-0.24	0.0723	0.3123	705.077	0.137544	-325.733758	-325.727043	-325.726099	-325.764144	25.769
O          0.43650        0.92040       -0.69230
C          0.07740       -0.23350        0.02330
C          0.03020       -0.22730        1.58060
C         -1.25070       -1.11250        1.51400
C         -1.38540       -0.70280        0.04450
C         -2.50090        0.00820       -0.61930
N         -2.15030       -1.38040       -0.98820
H         -0.10290        1.64790       -0.36350
H          0.73860       -1.02570       -0.34620
H          0.89940       -0.61990        2.11080
H         -0.19030        0.77660        1.95780
H         -1.03010       -2.17830        1.62000
H         -2.07330       -0.85480        2.18400
H         -3.45720        0.12040       -0.11480
H         -2.25170        0.80480       -1.31690
H         -1.62850       -1.38190       -1.86280
