23
gdb 1094	4.0274	1.38811	1.37066	0.0484	77.88	-0.2997	0.0761	0.3758	1075.9653	0.215798	-276.205821	-276.196156	-276.195211	-276.239455	35.867
C         -0.06710        1.64270        0.01150
C          0.03410        0.11370        0.00230
C         -1.34450       -0.55980        0.01190
C         -1.38130       -2.10900        0.00400
C         -0.68460       -2.68210        1.25230
C         -2.85830       -2.54630        0.01570
C         -0.70870       -2.66850       -1.26360
H          0.92330        2.10890        0.00440
H         -0.61380        2.00930       -0.86460
H         -0.59660        1.99980        0.90200
H          0.60070       -0.20190       -0.88190
H          0.61770       -0.21140        0.87180
H         -1.89670       -0.20920        0.89560
H         -1.91350       -0.19980       -0.85710
H         -1.13100       -2.28550        2.17150
H         -0.77910       -3.77330        1.28200
H          0.38380       -2.44630        1.26990
H         -3.39090       -2.16390       -0.86220
H         -2.94660       -3.63840        0.01060
H         -3.37400       -2.17360        0.90770
H          0.35930       -2.43230       -1.29910
H         -0.80360       -3.75940       -1.30310
H         -1.17250       -2.26220       -2.16970
