22
gdb 11460	4.65293	1.12288	0.99348	1.2073	78.04	-0.2615	0.0796	0.3411	1248.1849	0.201091	-350.223452	-350.2145	-350.213556	-350.257431	33.46
C         -0.05320        1.54640        0.02860
C          0.09620        0.02850       -0.04200
C          1.09380       -0.48080       -1.09650
C          1.30870       -1.95710       -0.71900
C          1.16880       -2.01500        0.83280
C          2.48030       -2.34450        1.53520
O          2.86360       -3.66390        1.17420
C          0.62470       -0.62330        1.25060
H          0.90970        2.02340        0.24750
H         -0.41970        1.95650       -0.91860
H         -0.75730        1.84460        0.81310
H         -0.88640       -0.41050       -0.26950
H          0.74130       -0.34590       -2.12390
H          2.03330        0.08130       -1.00290
H          0.53650       -2.57670       -1.18670
H          2.27060       -2.35550       -1.05170
H          0.45690       -2.79980        1.10870
H          3.24950       -1.61180        1.23600
H          2.35030       -2.25340        2.62630
H          3.71540       -3.85190        1.57860
H          1.44360       -0.00620        1.64820
H         -0.13310       -0.68390        2.03760
