15
gdb 12456	3.62211	1.98635	1.34544	3.379	65.33	-0.2241	-0.0117	0.2124	873.5842	0.121033	-399.826848	-399.819954	-399.81901	-399.85818	25.848
O         -0.03730       -0.10720        0.00250
C         -0.01360        1.10640        0.03590
C         -1.28550        1.94350       -0.09000
O         -1.36780        3.00580        0.83210
C         -0.81920        4.22640        0.38340
C          0.66460        4.20570        0.16300
C          1.47790        3.14840        0.10870
N          1.18010        1.78460        0.17410
H         -1.37270        2.30280       -1.12830
H         -2.11550        1.26160        0.10610
H         -1.33740        4.56530       -0.53290
H         -1.06100        4.95720        1.16460
H          1.13100        5.17980        0.04960
H          2.54220        3.31690       -0.01890
H          1.96700        1.15310        0.22290
