14
gdb 21790	5.803	1.26069	1.11684	2.2695	64.65	-0.2438	-0.0368	0.207	1015.117	0.108434	-378.750333	-378.743117	-378.742173	-378.783579	25.118
O         -0.56590        1.15810        0.94980
C          0.06580        1.08530       -0.07080
C          1.44740        1.69920       -0.26840
C          1.40220        2.75910       -1.32580
C          1.90040        2.81270       -2.61350
C          1.49200        4.06960       -3.10810
N          0.78920        4.75210       -2.20890
N          0.74380        3.93570       -1.13990
H         -0.33900        0.57710       -0.97390
H          1.79040        2.08920        0.69520
H          2.13710        0.91150       -0.59090
H          2.48180        2.05400       -3.11210
H          1.68430        4.50470       -4.07770
H          0.25540        4.23890       -0.31290
