15
gdb 4763	6.64087	1.3315	1.12459	3.3431	66.59	-0.2082	0.0245	0.2326	1049.2774	0.117679	-399.819713	-399.811664	-399.81072	-399.853181	27.942
C          0.02280        1.38970       -0.10380
N         -0.06100       -0.04760       -0.28480
C         -1.14840       -0.63230       -0.09180
O         -2.35980       -0.09670        0.29020
C         -3.25080       -1.15460        0.36700
C         -2.62700       -2.28550        0.04990
C         -3.04180       -3.70280       -0.04450
O         -1.30480       -1.98480       -0.24260
H          0.78530        1.61590        0.65040
H          0.35500        1.85390       -1.03950
H         -0.91770        1.86350        0.20240
H         -4.26160       -0.92720        0.65490
H         -2.88820       -4.09010       -1.05760
H         -2.45830       -4.32880        0.63930
H         -4.09940       -3.80140        0.20960
