15
gdb 1732	5.87259	1.4271	1.27718	1.6153	66.92	-0.2283	0.0429	0.2712	969.1506	0.12287	-308.476587	-308.468509	-308.467565	-308.509777	28.414
C          0.00490        1.47460       -0.00290
C          0.00350        0.01910        0.00850
C         -0.00840       -1.18610        0.00790
C          0.03460       -2.62620        0.01450
O          1.12760       -3.20220       -0.65730
C         -0.51330       -3.37950        1.21700
C         -1.23560       -3.42580       -0.10710
H          0.75150        1.86050       -0.70590
H         -0.96970        1.87060       -0.30940
H          0.23600        1.88710        0.98560
H          1.92950       -2.87160       -0.23690
H          0.04450       -4.26090        1.51250
H         -0.94630       -2.80470        2.02720
H         -2.16740       -2.88420       -0.21310
H         -1.15570       -4.33540       -0.69110
