10
gdb 1375	7.41091	1.5729	1.29751	0.8115	54.23	-0.2877	-0.0682	0.2195	836.116	0.064727	-359.297522	-359.290584	-359.28964	-359.328928	23.195
N         -0.19240        1.30530        0.01160
C         -0.03200        0.05970        0.00300
O         -1.16390       -0.72690        0.00970
C         -0.99630       -2.08380        0.00020
O          0.06380       -2.64970       -0.01360
C         -2.27980       -2.73860        0.00910
C         -3.32260       -3.33470        0.01610
H          0.71410        1.77090        0.00460
H          0.89000       -0.52060       -0.01020
H         -4.24710       -3.85990        0.02230
