18
gdb 12505	3.50648	1.90343	1.35927	0.2514	83.05	-0.2123	-0.0262	0.1861	944.9674	0.155358	-310.694947	-310.687601	-310.686657	-310.726092	28.814
C          0.00720        1.52510       -0.08350
C         -0.03010        0.01540        0.00950
C         -1.19890       -0.64490        0.13980
C         -1.29550       -2.14870        0.09900
C         -0.59500       -2.71130        1.31020
C          0.73450       -2.58560        1.47380
C          1.60050       -1.79620        0.62720
C          1.25830       -0.65640       -0.02850
H          0.56790        1.96780        0.74820
H          0.50720        1.84500       -1.00630
H         -0.99880        1.95200       -0.08180
H         -2.11770       -0.07740        0.26680
H         -2.33980       -2.46830        0.06780
H         -0.80600       -2.52540       -0.81050
H         -1.18390       -3.24040        2.05450
H          1.21170       -3.09570        2.30800
H          2.64950       -2.08470        0.60600
H          2.06100       -0.11190       -0.52390
