13
gdb 266	8.98436	2.12697	1.75865	2.4228	46.82	-0.2644	0.0591	0.3235	686.248	0.107556	-323.6788	-323.671741	-323.670797	-323.710041	24.01
C         -0.10780        1.49520        0.01000
C         -0.01340       -0.01870        0.00140
O         -1.35440       -0.53640        0.04230
C         -1.44760       -1.88820        0.04380
N         -2.76020       -2.26340        0.14040
O         -0.50660       -2.64560       -0.00130
H          0.89580        1.92960       -0.02050
H         -0.66640        1.85720       -0.85800
H         -0.61000        1.85030        0.91440
H          0.48730       -0.39110       -0.89790
H          0.54260       -0.39730        0.86480
H         -3.47200       -1.58140       -0.05950
H         -2.95900       -3.22610       -0.07080
