14
gdb 5764	6.31181	1.54117	1.37114	2.7384	64.54	-0.2319	0.0021	0.234	879.5938	0.108991	-378.713958	-378.70754	-378.706595	-378.74525	23.638
C          0.23490        1.59460        0.10120
C          1.26930        0.57210       -0.19890
N         -0.11880        0.16510        0.07760
C         -0.40090       -0.47200        1.27620
C         -1.27750       -1.45340        1.59850
N         -1.17270       -1.74570        2.95500
C         -0.25650       -0.94330        3.38130
O          0.27340       -0.12980        2.43480
H          0.28160        2.08270        1.07000
H         -0.20520        2.18130       -0.69920
H          1.59380        0.40320       -1.22100
H          2.01150        0.37270        0.56820
H         -1.96980       -1.96340        0.94950
H          0.13480       -0.84100        4.38160
