19
gdb 1194	4.28212	1.71415	1.70186	0.3321	63.67	-0.2468	0.071	0.3178	861.9668	0.168315	-348.044714	-348.035382	-348.034438	-348.077932	33.275
C         -0.07540        1.34470        0.12010
O          0.02940       -0.05040       -0.04390
C          0.69700       -0.52900       -1.21850
C         -0.04050       -0.11710       -2.49980
C          2.16780       -0.09260       -1.25520
C          0.60730       -2.05220       -1.02930
O          1.23440       -2.69020       -2.13180
H          0.90390        1.83860        0.19120
H         -0.64760        1.82560       -0.68570
H         -0.60860        1.50580        1.06100
H          0.07830        0.94830       -2.71620
H          0.35540       -0.68200       -3.34680
H         -1.10900       -0.33570       -2.40650
H          2.64420       -0.29100       -0.28990
H          2.69740       -0.65840       -2.02500
H          2.27360        0.97200       -1.48250
H          1.09540       -2.31130       -0.07860
H         -0.45400       -2.32850       -0.94980
H          1.17210       -3.64030       -2.00320
