14
gdb 8262	9.09931	0.91949	0.87573	2.2217	60.55	-0.2587	-0.0379	0.2208	1221.002	0.104737	-419.70206	-419.694365	-419.69342	-419.735422	26.76
O         -0.50360        0.13400       -0.21100
C         -0.26360        1.29910       -0.13130
O          0.97290        1.77120        0.13300
C          1.16670        3.17670        0.20980
C          1.89120        3.65080        1.49960
C          2.88050        4.40370        0.59200
O          3.69980        5.25150        0.78170
C          2.33350        3.70810       -0.66730
H         -1.01060        2.10640       -0.26210
H          0.22170        3.69870        0.03080
H          1.32980        4.24260        2.22560
H          2.37330        2.81260        2.01370
H          2.98700        2.89220       -0.99350
H          2.09510        4.34180       -1.52420
