18
gdb 11268	4.55194	1.2822	1.03909	3.4374	76.76	-0.2466	-0.0528	0.1939	1130.5096	0.153809	-347.841573	-347.833641	-347.832697	-347.874067	29.325
C         -0.04410        1.54720        0.01490
C          0.07550        0.02480        0.00610
C          0.91400       -0.54950       -1.17150
C          1.54470       -1.78130       -0.58250
C          1.44510       -1.80330        0.75540
C          0.72730       -0.58040        1.27960
C          1.99860       -2.85740        1.60600
O          1.93800       -2.86160        2.81650
H          0.94250        2.01760        0.09900
H         -0.51300        1.91700       -0.90330
H         -0.64990        1.89240        0.85920
H         -0.93090       -0.40370       -0.07910
H          0.31320       -0.75720       -2.06410
H          1.69760        0.15570       -1.49000
H          2.04940       -2.53830       -1.17520
H          1.44810        0.11430        1.73310
H          0.00180       -0.82160        2.06160
H          2.49420       -3.68670        1.05200
