18
gdb 18761	3.80732	2.23181	1.70398	1.6751	70.97	-0.2314	0.0661	0.2975	811.1831	0.155402	-347.754522	-347.748029	-347.747085	-347.78493	26.269
C         -0.04370        1.48470        0.07300
C          1.51520        1.60300       -0.02070
C          1.61160        0.08060        0.11950
C          2.60780       -0.99090       -0.33460
C          2.17530       -1.87060        0.88690
C          1.35180       -0.67680        1.45110
O         -0.07240       -0.76340        1.23160
C          0.07120       -0.06430       -0.02330
H         -0.47200        1.80170        1.02590
H         -0.59350        1.96240       -0.74120
H          1.84180        1.95270       -1.00520
H          2.02300        2.20290        0.74010
H          2.46270       -1.40900       -1.33490
H          3.64670       -0.65620       -0.25190
H          1.53830       -2.72150        0.63740
H          2.99450       -2.21340        1.52310
H          1.60520       -0.31140        2.45070
H         -0.44730       -0.56250       -0.84780
