19
gdb 8404	3.758	1.61554	1.41679	1.6741	70.95	-0.224	0.0601	0.2841	952.7591	0.165609	-364.979701	-364.97177	-364.970825	-365.012081	30.31
C          0.02330        1.54910        0.04840
C         -0.02430        0.02060        0.03110
O          0.71990       -0.54380        1.11030
C         -1.44010       -0.51890        0.02660
C         -2.59110       -0.30230       -0.98600
N         -3.24980       -1.24000        0.04200
C         -1.90590       -1.99250        0.00560
C         -2.56160       -0.34700        1.08920
H          1.06050        1.89340        0.06830
H         -0.46780        1.97130       -0.83440
H         -0.48680        1.94470        0.93530
H          0.48500       -0.34420       -0.87030
H          0.32190       -0.23190        1.93090
H         -3.06010        0.68460       -1.03700
H         -2.49220       -0.74750       -1.98020
H         -1.75430       -2.56730       -0.91250
H         -1.72130       -2.60280        0.89300
H         -2.43680       -0.83800        2.05910
H         -3.03090        0.63510        1.19730
