17
gdb 12981	2.70026	2.5979	1.60279	3.6345	68.19	-0.2363	0.0338	0.2701	836.0305	0.143813	-363.904964	-363.897587	-363.896643	-363.936304	28.187
C         -0.02580        1.54610        0.00800
C          0.06640        0.04310        0.02930
C         -0.80640       -0.80550        0.93610
C          0.68460       -0.80800        1.12100
C          1.45350       -1.94180        0.44870
N          1.06530       -1.81550       -0.94650
C          0.41230       -0.65090       -1.27000
O          0.16790       -0.25820       -2.39100
H          0.93530        2.00240       -0.25130
H         -0.75410        1.86400       -0.74390
H         -0.33770        1.93690        0.98110
H         -1.39370       -0.26740        1.67300
H         -1.29050       -1.68740        0.52800
H          1.10880       -0.36230        2.01250
H          2.53680       -1.81150        0.58030
H          1.18320       -2.92550        0.85320
H          1.41230       -2.41880       -1.67420
