10
gdb 489	25.56861	1.4803	1.4239	0.0004	47.69	-0.3397	-0.0013	0.3384	748.3461	0.073373	-264.243028	-264.236876	-264.235932	-264.27298	20.047
N          0.00010       -1.16420       -0.00410
C         -0.02180       -0.00940        0.00210
C         -0.02200        1.45090        0.00980
C          1.42160        2.01430       -0.00050
C          1.42140        3.47460        0.00740
N          1.39940        4.62940        0.01370
H         -0.57200        1.81520       -0.86330
H         -0.55590        1.80600        0.89660
H          1.97170        1.64990        0.87250
H          1.95550        1.65930       -0.88740
