13
gdb 9021	4.5676	0.93015	0.79896	4.9254	77.78	-0.2834	-0.0447	0.2387	1340.6409	0.093524	-324.278258	-324.2698	-324.268856	-324.311601	29.535
C         -0.01650        1.55400       -0.00120
C         -0.01810        0.00360        0.05210
C          0.72750       -0.49870        1.21010
C          1.35150       -0.88650        2.15930
C         -1.38520       -0.52140        0.04220
C         -2.51880       -0.93620        0.01980
C         -3.80080       -1.40570       -0.00350
N         -4.89200       -1.80340       -0.02550
H          1.01400        1.91400       -0.03420
H         -0.54720        1.89910       -0.89150
H         -0.50470        1.96420        0.88490
H          0.47660       -0.36400       -0.85900
H          1.89980       -1.23910        2.99810
