12
gdb 17158	4.35431	2.03322	1.64865	5.1162	59.31	-0.2646	-0.018	0.2466	746.3795	0.084196	-377.402712	-377.396869	-377.395925	-377.432702	22.451
N         -0.01960       -1.07730        0.05280
C         -0.02870        0.07820        0.04690
C         -0.02880        1.51500        0.02290
O         -0.70950        2.27220        1.05720
C         -0.15620        3.30500        0.18860
C          1.16510        2.52050       -0.12130
N          1.02000        2.56170       -1.60820
C         -0.39710        2.50330       -1.13680
H         -0.33010        4.35030        0.43840
H          2.11690        2.51230        0.40840
H          1.24100        3.49420       -1.96390
H         -1.26720        2.47500       -1.79140
