16
gdb 18229	3.82897	1.82174	1.55385	2.6029	63.84	-0.2386	-0.0274	0.2112	841.6837	0.131102	-383.731004	-383.724021	-383.723077	-383.762677	25.999
O         -0.80380        1.21520       -0.35190
C          0.18760        1.05040        0.31410
C          1.44160        1.89710        0.22250
C          1.54390        2.72390       -1.08210
O          2.12780        3.98050       -0.74270
C          1.87720        4.23230        0.60970
C          0.47200        4.11920        1.13930
C          1.45670        2.97310        1.31690
H          0.22070        0.25980        1.09700
H          2.31280        1.24780        0.36830
H          2.17950        2.25220       -1.83590
H          0.54270        2.85580       -1.50670
H          2.57370        4.94940        1.02780
H          0.22800        4.69690        2.02420
H         -0.35050        3.99440        0.44320
H          1.81390        2.70900        2.30450
