15
gdb 4174	3.91594	1.58345	1.24991	0.9391	66.56	-0.2295	-0.0034	0.2261	957.0614	0.117233	-399.712995	-399.705463	-399.704519	-399.744821	28.054
O         -0.12210        1.32680        0.05950
N          0.02600       -0.06440        0.20060
C         -1.08110       -0.65240        0.04490
C         -2.52460       -0.31590       -0.24830
O         -2.85070       -1.73110       -0.19250
C         -1.48600       -2.07770        0.08710
C         -0.82190       -3.30110       -0.46430
C         -1.09570       -3.17940        1.02290
H          0.77670        1.64390        0.19910
H         -3.04340        0.26470        0.52290
H         -2.71990        0.12090       -1.23420
H         -1.45320       -3.97270       -1.03600
H          0.19800       -3.20440       -0.82030
H         -0.26540       -2.99840        1.69670
H         -1.90750       -3.77070        1.43230
