13
gdb 9594	4.81609	1.37437	1.23974	2.3693	60.79	-0.2832	-0.073	0.2101	944.818	0.092693	-398.592765	-398.584828	-398.583884	-398.625138	27.532
C          0.14970        1.48820       -0.03470
C          0.03490       -0.01350        0.08400
O          1.21230       -0.77780       -0.13170
C          0.67520       -0.81170        1.18280
C          1.44410       -0.13800        2.28390
O          2.31130        0.67790        2.11170
C         -1.17400       -0.59040       -0.49030
N         -2.14770       -1.02050       -0.93980
H          1.07480        1.82510        0.43240
H          0.15950        1.76790       -1.09190
H         -0.70660        1.97580        0.43970
H          0.19430       -1.74910        1.46340
H          1.13130       -0.45870        3.30090
