19
gdb 19177	3.4606	1.79814	1.39088	0.8882	72.75	-0.2144	0.0702	0.2846	955.6271	0.164604	-364.971444	-364.963134	-364.96219	-365.003841	31.529
C         -0.32990        1.55240       -0.02320
C          0.04660        0.07440        0.08970
C          1.23230       -0.56060       -0.69910
C          2.24990        0.05240        0.33670
O          2.64700        1.39620        0.39310
C          1.04630       -0.52650        1.13780
N          1.05360       -1.74470        0.23240
C          2.10140       -2.75610        0.35800
H          0.43960        2.17120       -0.49200
H         -1.22090        1.65500       -0.65030
H         -0.58080        1.98440        0.95270
H         -0.84270       -0.55730        0.03160
H          1.33360       -0.69130       -1.77890
H          3.17640       -0.51200        0.42230
H          1.89160        1.94720        0.60800
H          0.91550       -0.61770        2.21930
H          1.87810       -3.36620        1.23960
H          2.04210       -3.41070       -0.51790
H          3.14130       -2.41020        0.44590
