16
gdb 12892	2.78067	2.266	1.80659	1.0183	59.41	-0.2334	0.063	0.2964	793.2714	0.131144	-420.850724	-420.843612	-420.842668	-420.88157	27.873
O          0.13510        1.36810       -0.10410
C         -0.02100       -0.01520       -0.01980
C         -0.45930       -0.73930        1.23990
C         -1.16520        0.10620        2.27880
O         -2.09290        0.91900        1.53980
C         -2.54190        0.15950        0.41570
C         -1.35760       -0.70980        0.01320
O         -1.61380       -1.87090       -0.71210
H         -0.56550        1.76590        0.43200
H          0.74790       -0.52030       -0.59640
H          0.04740       -1.64950        1.53820
H         -1.69360       -0.52790        3.00580
H         -0.51170        0.79350        2.82500
H         -3.39230       -0.49000        0.67170
H         -2.86130        0.87690       -0.34780
H         -1.61690       -1.64540       -1.64890
