13
gdb 21585	4.09466	1.87515	1.28707	4.3668	64.4	-0.2286	-0.0285	0.2	869.8051	0.09775	-394.813393	-394.806869	-394.805925	-394.843748	25.544
N         -0.05780        1.40900       -0.08370
C          0.03370        0.03860       -0.04300
C         -1.13280       -0.76460       -0.01580
N         -1.11640       -2.08360       -0.02070
N          0.04370       -2.73760       -0.05540
C          1.17290       -2.03270       -0.08210
O          2.31650       -2.74200       -0.11390
C          1.24250       -0.64040       -0.07520
H          0.76210        1.93670        0.17120
H         -0.92360        1.82100        0.22610
H         -2.11690       -0.30320        0.01020
H          2.04410       -3.67210       -0.11140
H          2.20120       -0.13550       -0.09660
