16
gdb 2185	3.86842	2.49421	1.67658	3.7929	62.62	-0.2392	0.0405	0.2797	768.9361	0.136329	-325.808754	-325.801157	-325.800213	-325.840453	26.818
C         -0.05270        1.60890        0.02110
C          0.02530        0.08910        0.00180
C          0.72200       -0.58160       -1.22110
C          1.73180       -1.14250       -0.19450
O          2.69900       -1.85950       -0.21520
N          1.08620       -0.50130        0.83390
C          1.30200       -0.53330        2.25630
H          0.91810        2.05150       -0.22420
H         -0.78870        1.96150       -0.70850
H         -0.35830        1.97930        1.00550
H         -0.95920       -0.34450        0.22410
H          0.13960       -1.34350       -1.74220
H          1.15270        0.11160       -1.94690
H          2.19590       -1.13460        2.43980
H          1.46370        0.47050        2.66660
H          0.45520       -0.99110        2.78380
