14
gdb 10456	3.08388	1.64671	1.2149	3.6268	64.88	-0.2832	-0.0029	0.2803	976.2508	0.105998	-378.708452	-378.700557	-378.699613	-378.74141	27.737
N         -0.19260        1.28000        0.07220
C         -0.10780        0.02950        0.16840
O         -1.12760       -0.73880       -0.31180
C         -1.01620       -2.12170       -0.10090
C         -1.40060       -2.67440        1.26100
C         -2.32940       -2.83560        0.09000
C          0.03680       -2.77260       -0.84850
N          0.88940       -3.28900       -1.43500
H          0.63980        1.72030        0.45890
H          0.71380       -0.55410        0.59920
H         -0.86160       -3.54020        1.62650
H         -1.65220       -1.93000        2.00740
H         -3.20180       -2.19520        0.04040
H         -2.43910       -3.81370       -0.36140
