14
gdb 13298	5.2703	1.31059	1.16478	4.0242	62.66	-0.2631	-0.0011	0.262	1004.7287	0.108616	-378.752093	-378.744748	-378.743804	-378.784892	25.211
N         -0.68700       -0.36690       -1.15720
C         -0.24200        0.30530       -0.33060
C          0.31280        1.14710        0.73030
C          1.61680        1.79020        0.34440
N          2.70560        1.66510        0.97950
C          3.69130        2.49220        0.26200
C          2.91350        3.06950       -0.95080
O          1.56460        2.57270       -0.76030
H         -0.41820        1.92830        0.97090
H          0.48100        0.54980        1.62870
H          4.07270        3.27230        0.92870
H          4.54280        1.87510       -0.03980
H          2.87230        4.16100       -0.97240
H          3.27450        2.70580       -1.91620
