19
gdb 20043	5.15926	1.3026	1.15266	1.3768	79.17	-0.2178	0.0272	0.2451	1086.4413	0.1678	-327.916279	-327.90878	-327.907836	-327.948414	28.485
C          0.26510        1.52930        0.08440
N          1.26980        0.49360       -0.17660
C         -0.13950        0.09170        0.05590
C         -0.43260       -0.68800        1.27350
C         -1.36650       -1.63730        1.38660
C         -1.44490       -2.20850        2.78130
C         -0.13840       -1.69080        3.43630
C          0.28560       -0.46490        2.58970
H          0.37670        2.04070        1.03610
H         -0.07070        2.16350       -0.73220
H          1.47790        0.44860       -1.17050
H         -0.71130       -0.21360       -0.81850
H         -2.02970       -1.94820        0.58540
H         -2.33920       -1.83850        3.30450
H         -1.51630       -3.30230        2.79460
H         -0.25780       -1.45390        4.49670
H          0.63280       -2.46420        3.36250
H          1.36870       -0.38380        2.46020
H         -0.04590        0.47720        3.05020
