17
gdb 9724	2.85065	1.94279	1.64261	4.018	67.76	-0.2733	0.0288	0.3021	879.8673	0.142544	-363.88961	-363.881641	-363.880697	-363.92219	29.059
C         -0.05050        1.52880        0.01700
C          0.03180        0.00450       -0.04980
C          0.82890       -0.55380       -1.24710
C          1.27350       -1.92580       -0.72190
C          1.44590       -1.67210        0.78860
O          0.73480       -0.46150        1.09500
C         -1.34260       -0.57060       -0.05310
N         -2.40350       -1.02940       -0.05670
H          0.96220        1.93920        0.02690
H         -0.59300        1.92410       -0.84580
H         -0.56640        1.84190        0.92740
H          0.24090       -0.60390       -2.16520
H          1.68760        0.10330       -1.41770
H          0.49280       -2.67010       -0.90120
H          2.19160       -2.28340       -1.19230
H          1.04840       -2.49280        1.39540
H          2.49420       -1.51600        1.06730
