14
gdb 482	6.06624	3.74807	2.96204	1.1413	53.1	-0.2475	0.0834	0.3309	499.7541	0.120085	-270.397623	-270.392001	-270.391057	-270.426196	21.746
O         -0.05680        1.42910        0.04110
C         -0.01110        0.04550        0.05090
C         -0.28980       -0.78030       -1.17270
C         -1.18750       -0.91940        0.04030
C         -0.49340       -1.79660        1.08910
C          0.70110       -0.78320        1.12730
H          0.65890        1.75230       -0.51710
H         -0.72950       -0.21950       -1.99160
H          0.36600       -1.59500       -1.47570
H         -2.24860       -0.71140       -0.01830
H         -1.02810       -1.84800        2.03970
H         -0.25250       -2.81490        0.76650
H          1.69810       -1.16450        0.88060
H          0.74960       -0.24790        2.07820
