12
gdb 21878	3.4199	2.47872	1.43711	1.2274	61.57	-0.2223	-0.0532	0.1691	779.8732	0.086936	-410.852385	-410.8462	-410.845256	-410.882759	23.507
O         -0.06970        1.28220        0.21630
C          0.00510       -0.03290        0.05070
N          1.15200       -0.61630       -0.05560
C          1.14890       -1.98180       -0.22510
N          0.10750       -2.74590       -0.28920
N         -1.08110       -2.10330       -0.17420
C         -1.29030       -0.74090        0.00100
N         -2.40600       -0.12630        0.11000
H          0.84350        1.60840        0.22980
H          2.11390       -2.46520       -0.31370
H         -1.88430       -2.71200       -0.22610
H         -3.19800       -0.77010        0.05340
