14
gdb 1449	4.45742	2.07142	1.42693	3.1627	57.59	-0.243	-0.0007	0.2423	817.129	0.114527	-357.944802	-357.937131	-357.936187	-357.977356	26.071
C         -0.39960        1.31530       -0.53920
N         -1.01390        0.01210       -0.39560
C         -1.11000       -0.59170        0.80800
O         -0.71900       -0.15470        1.87550
N         -1.73760       -1.86700        0.78790
C         -2.26370       -2.59040       -0.24970
N         -2.27170       -2.19540       -1.46470
H          0.46970        1.27150       -1.20530
H         -1.10990        2.04470       -0.94490
H         -0.07430        1.64770        0.44690
H         -1.39190       -0.48920       -1.19590
H         -1.77960       -2.26590        1.71220
H         -2.67500       -3.54630        0.09230
H         -2.70900       -2.88420       -2.06900
