17
gdb 20838	5.19079	1.31487	1.14746	0.3687	71.61	-0.2456	0.0027	0.2483	1085.0984	0.143472	-360.06151	-360.053299	-360.052355	-360.095528	28.356
C          0.06560        1.47150       -0.39620
C         -0.04160        0.08090        0.25330
C         -1.41200       -0.51220        0.14140
N         -2.37440       -0.25530        1.03550
N         -3.43130       -0.91460        0.57230
C         -4.68480       -0.96090        1.29520
N         -3.23910       -1.59440       -0.55110
C         -1.96090       -1.34880       -0.84540
H          1.07890        1.87190       -0.29310
H         -0.17590        1.42770       -1.46290
H         -0.62950        2.17170        0.07600
H          0.68010       -0.59900       -0.21300
H          0.22580        0.15110        1.31250
H         -4.89850        0.02950        1.69910
H         -5.46350       -1.26280        0.59580
H         -4.63180       -1.68090        2.11780
H         -1.50510       -1.76890       -1.72830
