20
gdb 10613	2.4804	1.73284	1.20424	2.0534	70.83	-0.2549	0.0802	0.3351	1079.8625	0.174833	-386.127997	-386.118463	-386.117519	-386.162224	34.516
C         -1.11140       -0.22720       -0.78350
C         -1.43100       -0.62730        0.66280
C         -0.19750       -0.82170        1.52500
C          0.47810        0.45270        2.00360
O         -0.36250        1.16190        2.89840
O         -0.33560       -1.76870        2.61140
C          0.57690       -2.07710        1.54660
C          0.28010       -3.29750        0.71240
H         -0.51850       -0.99580       -1.29010
H         -2.03280       -0.08400       -1.35560
H         -0.54910        0.71080       -0.83090
H         -2.04260        0.14830        1.13730
H         -2.02340       -1.54580        0.68040
H          1.44020        0.20180        2.47420
H          0.67980        1.13070        1.16780
H         -0.58130        0.54250        3.60510
H          1.62500       -1.99390        1.84520
H         -0.76300       -3.33490        0.39380
H          0.91980       -3.31290       -0.17670
H          0.49090       -4.20400        1.28940
