17
gdb 13332	6.03843	1.13967	1.00291	2.9532	70.68	-0.2154	-0.0235	0.192	1133.5756	0.141452	-363.859907	-363.852065	-363.85112	-363.893034	27.912
O         -0.45770        0.19930        0.42670
C         -0.12580        1.29490        0.05850
C          1.31190        1.72490       -0.19670
N          1.39470        2.68030       -1.27310
C          1.17230        2.14890       -2.62440
C          1.96440        3.08760       -3.49300
C          2.74000        3.87190       -2.75150
C          2.56990        3.56050       -1.28990
H         -0.86370        2.11190       -0.11390
H          1.64580        2.21220        0.73110
H          1.93260        0.82010       -0.33000
H          1.53690        1.10810       -2.73610
H          0.10170        2.12980       -2.87460
H          1.90140        3.07740       -4.57370
H          3.43120        4.62310       -3.11220
H          2.39980        4.45550       -0.67390
H          3.47930        3.07140       -0.88950
