16
gdb 6829	3.18864	1.70538	1.4738	4.0118	61.61	-0.2467	-0.0314	0.2153	901.7877	0.127241	-420.857509	-420.849005	-420.848061	-420.890734	30.118
C         -0.14370        1.55610       -0.04610
C         -0.01620        0.03950       -0.02780
O         -1.23810       -0.60820       -0.28000
C          1.23090       -0.50030       -0.78030
O          1.91100       -0.76600        0.46430
C          0.71340       -0.57240        1.21600
C          0.85770        0.28600        2.44570
O          1.84930        0.89250        2.75460
H          0.79970        2.02980        0.23720
H         -0.40180        1.89870       -1.05580
H         -0.92460        1.89320        0.64270
H         -1.75140       -0.07270       -0.89400
H          1.01530       -1.41910       -1.33950
H          1.78750        0.20450       -1.40780
H          0.23070       -1.52200        1.49780
H         -0.07280        0.32700        3.06010
