16
gdb 3452	4.46637	2.75276	2.0582	2.126	59.36	-0.2294	0.067	0.2964	663.8025	0.138851	-325.75123	-325.744991	-325.744047	-325.781041	24.329
O          0.21450        1.17390       -0.63610
C          0.00250       -0.05890        0.03520
C          0.40860       -0.05150        1.52910
C         -0.62620       -0.97970        2.19810
N         -1.85050       -0.97860        1.36690
C         -2.32380        0.36950        1.02430
C         -1.48020       -0.38880        0.06690
H          1.16340        1.30130       -0.73260
H          0.52650       -0.87040       -0.49340
H          1.43660       -0.38640        1.69110
H          0.33700        0.97560        1.89890
H         -0.26100       -2.01220        2.22780
H         -0.86710       -0.68750        3.22510
H         -3.39380        0.43940        0.85410
H         -1.89080        1.23040        1.52640
H         -1.92350       -0.83380       -0.81870
