16
gdb 12745	3.23161	1.81147	1.48649	5.0237	68.91	-0.2341	0.0156	0.2498	893.9715	0.130941	-342.750581	-342.743086	-342.742142	-342.782245	28.151
C         -0.08070        1.54740       -0.01970
C          0.03020        0.05320        0.03990
C         -0.83360       -0.83690        0.90700
C          0.65480       -0.92420        1.02710
N          1.14160       -1.81910       -0.05140
C          0.68350       -0.80650       -1.06440
C         -0.17580       -1.33560       -2.12700
N         -0.86860       -1.72710       -2.96510
H          0.86430        2.01260       -0.32280
H         -0.85250        1.85840       -0.73380
H         -0.35540        1.95430        0.95840
H         -1.34100       -0.30480        1.70560
H         -1.38350       -1.67440        0.48670
H          1.21520       -0.76620        1.94050
H          2.15500       -1.87390       -0.06330
H          1.51900       -0.26920       -1.52600
