17
gdb 9789	3.025	1.78311	1.34864	5.3377	68.02	-0.2593	0.0274	0.2867	946.7146	0.142481	-360.023277	-360.0148	-360.013856	-360.056012	31.398
C         -0.13120        1.53180       -0.23590
C          0.00790        0.03850       -0.02390
C          0.87820       -0.73790       -0.94300
N          1.27930       -0.51100        0.45780
C         -1.22550       -0.65410        0.60390
N         -1.09610       -2.07860        0.88460
C         -1.57810        0.04380        1.85900
N         -1.83410        0.61800        2.82830
H          0.75890        1.93950       -0.72450
H         -0.99420        1.75970       -0.87180
H         -0.27300        2.05330        0.71560
H          0.65690       -1.77280       -1.18680
H          1.38580       -0.18820       -1.73110
H          1.98650        0.21590        0.52390
H         -2.07400       -0.51680       -0.07850
H         -1.15010       -2.60740        0.02140
H         -0.17860       -2.24420        1.29240
