17
gdb 3178	5.29735	2.24135	1.87767	1.809	63.41	-0.2542	0.0787	0.3329	729.4682	0.149795	-309.716743	-309.710295	-309.709351	-309.747471	24.757
C          0.23500        1.47990       -0.02470
O          1.23340        0.45610       -0.01870
C         -0.14770        0.06520       -0.00120
C         -0.63170       -0.67490        1.25360
C         -1.51580       -1.82480        0.72400
C         -0.97700       -2.09150       -0.69530
C         -0.67980       -0.67850       -1.22510
H          0.16830        2.07480        0.88650
H          0.15440        2.05030       -0.95070
H          0.24930       -1.06310        1.77520
H         -1.16020       -0.01980        1.95170
H         -1.49040       -2.70830        1.36730
H         -2.56120       -1.49900        0.66300
H         -0.04780       -2.67120       -0.63960
H         -1.67660       -2.65050       -1.32240
H         -1.60980       -0.20740       -1.56840
H          0.03770       -0.64460       -2.04830
