16
gdb 18620	2.97888	2.31677	1.81639	4.7874	64.16	-0.2469	0.0372	0.284	790.2123	0.132309	-379.942109	-379.934941	-379.933996	-379.973438	26.87
C         -0.05350        1.54030        0.04940
C          0.00880        0.03890       -0.10480
C          0.71450       -0.66690       -1.20630
C          1.73680        0.07470       -2.06960
N          2.74130        0.42110       -1.08570
C          2.44100        0.04370        0.20190
O          3.07270        0.30490        1.19330
N          1.23900       -0.75410        0.17270
H          0.79760        2.05220       -0.40420
H         -0.96820        1.91740       -0.41970
H         -0.08200        1.81260        1.10900
H         -0.86900       -0.46970        0.28930
H          0.29180       -1.57930       -1.61500
H          2.13440       -0.59060       -2.84550
H          1.31780        0.95900       -2.56920
H          3.53350        1.01450       -1.26780
