17
gdb 19942	4.01011	1.48813	1.1543	2.4967	69.6	-0.2604	0.0275	0.2878	1030.0817	0.143025	-363.845548	-363.838069	-363.837125	-363.877967	27.673
N         -0.30740        1.11410       -0.45220
C         -0.10090       -0.05930       -0.06480
O          1.06380       -0.67990        0.34250
C          0.35290       -1.92290        0.63460
C         -0.97380       -1.28870        0.14980
C         -2.11550       -1.17110        1.12250
C         -3.49540       -0.82600        0.62680
C         -3.20890       -2.21400        1.14020
H          0.55390        1.66360       -0.45120
H          0.75170       -2.75100        0.04410
H          0.40000       -2.15750        1.70140
H         -1.32310       -1.70770       -0.79900
H         -1.83610       -0.75170        2.08550
H         -4.10270       -0.16430        1.23330
H         -3.62820       -0.69280       -0.44120
H         -3.15250       -3.02210        0.41810
H         -3.62070       -2.50650        2.09950
