15
gdb 13847	4.20484	1.67278	1.34753	3.1759	62.65	-0.2279	0.0056	0.2335	899.4856	0.119476	-399.835085	-399.827624	-399.82668	-399.867345	27.273
N          0.63420       -0.11220       -0.57560
C         -0.19240        0.38950        0.37240
O          0.07720        1.30280        1.12840
C         -1.56190       -0.31180        0.45290
O         -1.72510       -1.32510       -0.54280
C         -2.04970       -2.57760        0.07300
C         -2.02230       -2.30230        1.54940
C         -1.75100       -1.02180        1.76680
H          1.52600        0.32680       -0.73100
H          0.28520       -0.81370       -1.20680
H         -2.31350        0.47880        0.30500
H         -3.03710       -2.91480       -0.27780
H         -1.31780       -3.34020       -0.23220
H         -2.20430       -3.06550        2.29490
H         -1.65140       -0.50820        2.71230
