14
gdb 479	6.0133	3.92776	3.04795	1.6329	53.34	-0.2287	0.0868	0.3155	498.0795	0.119588	-270.392444	-270.386783	-270.385839	-270.421106	21.408
C          0.03110        1.50470       -0.01400
C          0.04740        0.01460        0.07610
C         -0.88720       -0.85950        0.85540
C          0.61240       -0.99430        1.05670
C          1.20860       -1.66210       -0.17360
O          0.55490       -0.71150       -1.05700
H          1.02550        1.89570       -0.25100
H         -0.65860        1.83210       -0.80040
H         -0.30280        1.94270        0.93090
H         -1.40930       -0.37630        1.67570
H         -1.44800       -1.63970        0.34680
H          1.09850       -0.86020        2.01370
H          2.29830       -1.56700       -0.24570
H          0.91460       -2.69760       -0.38560
