16
gdb 1964	7.16538	1.53135	1.36524	3.894	61.85	-0.2462	0.0378	0.284	894.6601	0.136738	-325.808333	-325.800958	-325.800014	-325.840001	26.64
C          0.06470        1.55090       -0.09340
C         -0.13540        0.04080        0.06360
C          0.64440       -0.54850        1.23260
C          0.73160       -2.10140        1.32750
C          2.26430       -1.91600        1.20450
O          3.23050       -2.62940        1.22270
N          2.11040       -0.55520        1.07860
H          1.11630        1.79240       -0.28280
H         -0.51820        1.94240       -0.93200
H         -0.24560        2.08980        0.80880
H         -1.19960       -0.17930        0.21710
H          0.16700       -0.47490       -0.85610
H          0.32780       -0.08000        2.17360
H          0.41220       -2.53960        2.27440
H          0.27310       -2.64280        0.49740
H          2.79390        0.18760        1.08180
