14
gdb 4663	5.24318	1.40405	1.1152	6.9586	68.25	-0.2377	-0.0326	0.2051	1011.7127	0.107961	-378.781205	-378.773873	-378.772929	-378.813141	26.094
C         -0.03160        1.49540        0.04560
C          0.00140        0.00600       -0.02820
N         -0.03030       -0.71620       -1.11830
C          0.02080       -2.03520       -0.70360
C          0.00830       -3.19140       -1.59830
O         -0.04800       -3.15790       -2.80470
C          0.08470       -2.09590        0.67220
N          0.07190       -0.79600        1.09230
H          0.86610        1.89810        0.52810
H         -0.08660        1.89020       -0.96920
H         -0.90130        1.85490        0.60710
H          0.05720       -4.16200       -1.04990
H          0.13590       -2.92520        1.35890
H          0.10770       -0.48280        2.04880
