15
gdb 23920	4.16555	1.22902	1.1911	2.0686	53.89	-0.2927	0.0895	0.3822	1023.2247	0.115399	-494.167503	-494.159866	-494.158921	-494.200318	27.778
F          0.37740        0.19020       -0.03270
C         -0.02670        1.46730        0.07760
F          1.07620        2.23300        0.10360
F         -0.69750        1.77270       -1.04590
C         -0.89240        1.67520        1.30570
C         -0.20290        1.25940        2.58560
C          0.78200        2.18660        3.25140
C         -0.56050        1.93030        3.88750
H         -1.16330        2.73560        1.33320
H         -1.81510        1.10630        1.14840
H          0.02630        0.19970        2.63830
H          1.66340        1.75260        3.70930
H          0.95300        3.15350        2.79150
H         -1.29590        2.72800        3.86230
H         -0.60210        1.31890        4.78170
