16
gdb 20973	4.70891	1.6678	1.25641	4.0191	67.33	-0.2068	0.0365	0.2434	944.4716	0.132476	-376.1202	-376.112264	-376.11132	-376.152664	27.918
C          0.20230        1.34760        0.00730
N         -0.22260       -0.03720       -0.00500
C         -0.14010       -0.77300        1.24850
C         -0.09210       -0.75340       -1.16440
N         -0.23070       -2.06680       -1.29160
C         -0.06230       -2.25800       -2.63070
N          0.17710       -1.17920       -3.34560
N          0.16110       -0.20440       -2.37930
H          1.29390        1.46970       -0.08340
H         -0.28030        1.90600       -0.80240
H         -0.11400        1.80550        0.94710
H         -0.68950       -0.22780        2.02150
H         -0.58920       -1.75530        1.10850
H          0.89830       -0.91030        1.58610
H         -0.11820       -3.23510       -3.08790
H          0.33380        0.75070       -2.63640
