16
gdb 12494	3.42561	1.95142	1.39742	4.3235	60.9	-0.2545	0.0113	0.2658	879.1536	0.131789	-420.899405	-420.892205	-420.891261	-420.931315	26.464
O         -0.06070        1.03290        1.60970
C         -0.00120        1.45380        0.48550
C         -1.29570        1.59060       -0.33240
O         -1.18080        1.70190       -1.72750
C         -0.89360        3.00940       -2.18980
C          0.43260        3.54600       -1.62270
C          1.40300        2.40850       -1.31390
O          1.19700        1.80390       -0.02420
H         -1.86390        0.68100       -0.12410
H         -1.86240        2.43040        0.10080
H         -0.83260        2.91470       -3.27780
H         -1.72430        3.69300       -1.95680
H          0.88920        4.22860       -2.34760
H          0.27720        4.12650       -0.70650
H          1.36510        1.63480       -2.08730
H          2.42600        2.78610       -1.25320
