15
gdb 2973	3.54863	2.47036	1.72276	3.1562	60.52	-0.2571	0.0244	0.2815	752.6303	0.125626	-304.687547	-304.680263	-304.679319	-304.718937	25.97
C         -0.11640        1.54620        0.18960
C          0.01800        0.02030       -0.00270
C          0.80660       -0.56470        1.08640
N          1.40390       -1.02540        1.96250
C         -1.35090       -0.65150       -0.12150
C         -1.57940       -2.07290        0.22610
N         -2.15240       -0.99480        1.05690
H          0.86460        2.02420        0.23950
H         -0.66890        1.97220       -0.65230
H         -0.66140        1.77360        1.10920
H          0.56750       -0.16690       -0.93510
H         -1.93710       -0.21840       -0.93040
H         -2.30400       -2.65570       -0.33470
H         -0.74450       -2.64060        0.62720
H         -1.59550       -0.89370        1.90420
