14
gdb 7038	3.47371	0.9367	0.7446	4.1354	81.15	-0.2536	-0.0667	0.1869	1495.2295	0.103485	-345.370657	-345.360894	-345.35995	-345.410429	30.72
C          0.04090        1.44570       -0.11900
C          0.03200       -0.00210       -0.01030
C          0.01630       -1.20550        0.08100
C         -0.02310       -2.64630        0.19270
O         -1.05910       -3.26400        0.35970
C          1.26420       -3.29610        0.09070
C          2.33130       -3.85400        0.00750
C          3.61040       -4.53390       -0.09140
H          1.05530        1.83190       -0.26220
H         -0.57120        1.77420       -0.96600
H         -0.37370        1.90460        0.78520
H          3.61390       -5.23120       -0.93640
H          4.43270       -3.82490       -0.23200
H          3.81200       -5.11390        0.81580
