18
gdb 15989	3.73741	1.49123	1.2043	1.7318	68.11	-0.2518	0.0721	0.3239	1041.9654	0.152536	-384.899776	-384.89166	-384.890716	-384.932579	29.62
C          0.09800        1.57010        0.03650
C         -0.26350        0.10210       -0.21050
C          0.66850       -0.55970       -1.20940
O          2.04600       -0.61850       -0.74180
C          2.14000       -2.04180       -0.96840
C          0.66520       -2.08300       -1.34740
C         -0.37610       -3.07880       -1.10830
O          0.12200       -2.80200       -2.42960
H          1.12620        1.65310        0.39920
H          0.01760        2.15760       -0.88470
H         -0.56560        2.02000        0.78060
H         -0.22640       -0.45900        0.73110
H         -1.28970        0.02190       -0.59300
H          0.61370       -0.05640       -2.18640
H          2.81840       -2.29220       -1.79420
H          2.44270       -2.58730       -0.06680
H         -0.10890       -4.05470       -0.70470
H         -1.40130       -2.76280       -0.92220
