18
gdb 17190	4.92193	1.5959	1.43486	1.8996	72.45	-0.253	0.0982	0.3512	925.2272	0.154075	-347.726092	-347.719061	-347.718116	-347.756915	28.025
C         -0.12440        1.58870        0.00910
C          0.02690        0.07510        0.02430
C          1.17350       -0.64030       -0.77460
C          2.17100       -0.18080        0.34010
C          0.89420       -0.64920        1.11400
C          0.89180       -1.83830        0.14310
C          0.19080       -3.10690        0.03340
O          1.62610       -3.02950        0.24600
H          0.81700        2.12420        0.14950
H         -0.55310        1.91710       -0.94400
H         -0.80910        1.90910        0.80200
H         -0.95380       -0.39280       -0.12290
H          1.33160       -0.64470       -1.85330
H          3.06240       -0.79690        0.46900
H          2.41640        0.88000        0.38140
H          0.73340       -0.66380        2.19230
H         -0.37570       -3.49950        0.87670
H         -0.10690       -3.49090       -0.94130
