17
gdb 4959	3.23593	2.19067	1.31873	1.6624	79.32	-0.1966	0.0129	0.2095	919.4567	0.14457	-326.802543	-326.795242	-326.794297	-326.833506	28.96
C         -0.00170        1.52310       -0.00060
C          0.00240        0.01610       -0.00480
C         -0.05230       -0.70400       -1.19700
C         -0.03430       -2.09650       -1.21870
C          0.04040       -2.78940       -0.01420
C          0.09050       -2.09510        1.18870
C          0.07340       -0.69540        1.21060
N          0.19000       -0.00650        2.42360
H          0.87310        1.92720        0.52360
H          0.00330        1.91830       -1.01920
H         -0.89030        1.93380        0.50050
H         -0.10800       -0.15290       -2.13180
H         -0.07600       -2.62950       -2.16190
H          0.05520       -3.87450       -0.00570
H          0.14640       -2.63740        2.12880
H         -0.05220       -0.55710        3.23500
H         -0.26620        0.89390        2.44870
