17
gdb 12844	2.9352	2.53222	1.85074	1.4936	67.23	-0.2425	0.0217	0.2642	787.3121	0.143518	-363.874895	-363.867983	-363.867038	-363.905922	26.791
C         -0.08460        1.52610        0.07930
C          0.03800        0.01490        0.01660
C         -1.24370       -0.82950        0.29050
C         -0.46730       -1.65960        1.36110
C          0.77750       -0.76800        1.15310
O          1.87840       -1.42630        0.48880
C          1.69490       -1.15930       -0.83100
N          0.74320       -0.41200       -1.20940
H          0.90100        1.99920        0.02360
H         -0.68200        1.89180       -0.76160
H         -0.56850        1.84240        1.00930
H         -2.07250       -0.24460        0.69800
H         -1.59930       -1.38630       -0.57830
H         -0.88620       -1.62360        2.36930
H         -0.28680       -2.70390        1.09780
H          1.17290       -0.23730        2.02070
H          2.42250       -1.62960       -1.48370
