17
gdb 10700	2.55225	2.07707	1.37069	2.6488	65.	-0.2474	-0.025	0.2224	928.5134	0.140476	-400.981988	-400.973376	-400.972432	-401.014849	31.414
C          0.26040        1.55380       -0.20990
C         -0.04920        0.07770        0.04680
O          0.33490       -0.72980       -1.06620
C          0.70100       -0.46950        1.25500
C          1.08650       -1.91890        1.29820
N          2.11280       -0.89650        1.11370
C          0.40250        0.14960        2.57680
O         -0.51320        0.90600        2.79400
H          1.33340        1.70380       -0.36570
H         -0.26950        1.90120       -1.10450
H         -0.06780        2.16520        0.63280
H         -1.12570       -0.03230        0.24300
H         -0.00290       -0.31360       -1.86450
H          1.11720       -2.43780        2.25260
H          0.78040       -2.51380        0.44510
H          2.33410       -0.84540        0.12010
H          1.10720       -0.16810        3.37620
