14
gdb 19136	3.46015	1.80598	1.37082	4.2262	61.9	-0.2657	-0.0076	0.2581	883.9345	0.107311	-378.672238	-378.664973	-378.664029	-378.70407	26.297
N         -0.12470       -1.13930        0.13670
C         -0.08110        0.01440        0.09400
C         -0.06580        1.46930        0.04220
C          0.58940        2.19180        1.15390
O          1.23450        2.04490       -0.11070
C         -1.17070        2.08770       -0.77020
C         -1.00090        3.45340       -1.31880
N         -0.98410        2.28360       -2.21470
H          0.23790        3.19430        1.38740
H          1.03520        1.62950        1.97100
H         -2.16220        1.73640       -0.49470
H         -1.86870        4.09800       -1.41930
H         -0.06100        3.96030       -1.12440
H         -0.01940        2.07160       -2.46340
