18
gdb 13563	4.09158	1.2608	1.06082	2.4069	69.38	-0.2626	-0.0348	0.2278	1125.6665	0.151747	-384.936214	-384.927456	-384.926511	-384.969896	31.65
C          0.09180        1.55090       -0.30620
C          0.05720        0.05700       -0.07060
C          1.31790       -0.77040       -0.06860
C          0.53560       -0.58130        1.21390
C          1.09750        0.24640        2.35600
O          0.07930        0.82860        3.12510
C          1.98330       -0.62100        3.23130
O          1.78500       -0.74350        4.41630
H          1.01210        2.00640        0.07090
H          0.03790        1.77150       -1.37770
H         -0.75000        2.04800        0.18640
H         -0.81460       -0.43070       -0.49880
H          1.31820       -1.74850       -0.53650
H          2.25890       -0.23590       -0.16530
H         -0.04630       -1.43170        1.55980
H          1.76010        1.02520        1.93600
H          0.24340        0.53870        4.03680
H          2.81750       -1.14130        2.71960
