11
gdb 607	6.56461	2.98095	2.34689	4.0674	47.52	-0.278	0.0249	0.3029	534.1305	0.08473	-285.284456	-285.2786	-285.277655	-285.313705	20.749
O          0.05340        1.39590        0.31110
C          0.00220        0.02760        0.10200
C         -0.40940       -0.79180        1.27300
C         -1.35910       -0.67570        0.08210
C         -2.54490        0.12220        0.18440
N         -3.49930        0.77450        0.23550
H         -0.27830        1.84580       -0.47430
H          0.74890       -0.38030       -0.57870
H          0.05560       -1.75610        1.43850
H         -0.68360       -0.24190        2.16500
H         -1.45670       -1.54390       -0.56100
