15
gdb 18907	3.51015	2.75349	2.23897	2.2949	62.9	-0.2135	0.0597	0.2732	670.3617	0.119911	-362.566331	-362.560501	-362.559557	-362.595831	24.085
O         -0.14610        1.44800       -0.01880
C         -0.02510        0.08090        0.01020
C         -1.22050       -0.89240        0.09270
C         -0.42070       -1.85460       -0.70230
C          0.69240       -0.85480       -1.06910
C          1.83940       -1.12970       -0.06520
C          0.77110       -0.84370        1.00170
N         -0.33930       -1.87210        0.80100
H          0.72520        1.84180       -0.14190
H         -2.27980       -0.78450        0.29000
H         -0.71630       -2.76920       -1.20180
H          0.84200       -0.58020       -2.11170
H          2.31460       -2.11390       -0.06960
H          2.60400       -0.34580       -0.08960
H          0.98450       -0.64800        2.05170
