16
gdb 20210	3.39564	2.75337	2.19178	2.5399	62.27	-0.2222	0.0823	0.3045	689.3136	0.133587	-383.718254	-383.712574	-383.71163	-383.747922	23.043
C         -0.01020        1.55470        0.01290
O          1.34950        1.98540       -0.08250
C          2.08630        0.96640       -0.70230
C          2.38760       -0.28320        0.11060
O          1.90920       -0.33540        1.42730
C          0.49580       -0.54370        1.37790
C          0.03310        0.01680        0.02180
C          1.25240       -0.27670       -0.88140
H         -0.43690        1.98450        0.92440
H         -0.58440        1.92120       -0.85160
H          2.79490        1.31650       -1.44600
H          3.31210       -0.82830       -0.05080
H          0.26920       -1.61830        1.45070
H          0.04940       -0.03270        2.23650
H         -0.89740       -0.43470       -0.32740
H          1.18750       -0.87670       -1.77960
