16
gdb 7326	4.17668	1.19668	0.94152	9.0649	64.17	-0.2286	-0.0308	0.1978	1196.837	0.129965	-417.108035	-417.099234	-417.09829	-417.142582	30.668
C          0.00400        1.59980       -0.10220
C          0.01330        0.08500        0.07150
N          0.65420       -0.56200       -1.06470
C          0.76330       -1.84200       -1.30340
N          0.31640       -2.83470       -0.56850
H          0.53760       -3.73580       -0.99480
H         -0.17840       -2.75380        0.30420
C          1.51930       -2.24620       -2.63270
O          1.90870       -1.25480       -3.26260
O          1.57290       -3.47260       -2.78160
H          1.02330        1.98950       -0.18060
H         -0.54600        1.88610       -1.00320
H         -0.47590        2.07400        0.75710
H          0.54530       -0.18930        0.99240
H         -1.01370       -0.29290        0.16320
H          1.10730       -0.03880       -1.82130
