16
gdb 16704	2.88452	2.43471	1.88655	2.5958	59.04	-0.2373	0.0472	0.2845	759.2596	0.132013	-420.846581	-420.839939	-420.838995	-420.876972	26.744
O          0.13200        1.54150        0.12370
C          0.03330        0.13290        0.06800
C          0.05420       -0.63070        1.40650
C         -1.03550        0.04260        2.25530
C         -2.14930        0.10960        1.15360
O         -2.61890        1.39640        0.82400
C         -1.34570       -0.58080        0.02180
O         -0.69890       -1.68620        0.72030
H          0.30270        1.87400       -0.76280
H          0.73190       -0.30880       -0.64710
H          0.97470       -0.97130        1.87920
H         -1.31030       -0.57970        3.10890
H         -0.76090        1.03910        2.61030
H         -3.02570       -0.48330        1.42260
H         -1.83510        1.91880        0.60720
H         -1.86070       -0.85950       -0.89690
