16
gdb 11248	3.18608	1.93911	1.51845	3.0366	67.12	-0.2336	-0.0305	0.203	874.9396	0.129125	-383.750688	-383.743007	-383.742063	-383.782997	27.859
C          0.40090        1.42280       -0.30700
C         -0.00240       -0.01030        0.04370
O          0.32330       -0.90380       -1.03500
C          1.31240       -1.82360       -0.63820
C          2.65540       -1.58060       -1.33550
O          2.94490       -0.58450       -1.93900
C          1.46740       -1.62620        0.85540
C          0.72590       -0.59000        1.22780
H          1.47280        1.47110       -0.51330
H         -0.13770        1.75360       -1.19910
H          0.15840        2.10430        0.51550
H         -1.09260       -0.05190        0.19000
H          0.99580       -2.85000       -0.89320
H          3.37460       -2.42600       -1.21530
H          2.11360       -2.23380        1.47490
H          0.63880       -0.18390        2.22770
