22
gdb 8238	4.5056	1.11215	0.95346	1.6639	78.86	-0.242	0.0834	0.3255	1297.309	0.199356	-350.197133	-350.187806	-350.186862	-350.231785	33.821
C         -0.09660        1.58710        0.04720
C         -0.05280        0.05300       -0.01700
C         -1.47220       -0.53100       -0.03310
C          0.75580       -0.46440       -1.22180
C          2.24990       -0.19100       -1.17410
C          3.10670       -0.63480       -2.38220
C          3.56140        0.83650       -2.41990
O          2.61240        1.19890       -1.39740
H          0.90490        2.02070        0.06940
H         -0.61100        1.99470       -0.83150
H         -0.64370        1.92080        0.93560
H          0.44800       -0.31090        0.89270
H         -2.01330       -0.21820       -0.93430
H         -1.45820       -1.62630       -0.01720
H         -2.04910       -0.18920        0.83260
H          0.63650       -1.55560       -1.28920
H          0.35000       -0.04610       -2.15330
H          2.65930       -0.53420       -0.21130
H          3.87650       -1.38320       -2.18830
H          2.51350       -0.94260       -3.24650
H          4.59650        1.00650       -2.09470
H          3.39000        1.38590       -3.35270
