16
gdb 14903	4.72121	1.48639	1.21196	0.9579	72.37	-0.2486	0.0115	0.2601	978.3328	0.130884	-346.569717	-346.562416	-346.561472	-346.601215	27.891
C         -0.05660       -1.21630       -0.05530
C         -0.01980       -0.01510       -0.03190
C          0.01680        1.44310        0.02550
C         -0.69620        1.96340        1.29520
O         -0.52840        3.35950        1.42190
C          0.81660        3.73000        1.65980
C          1.79380        3.00950        0.77380
C          1.43770        1.98020        0.01140
H         -0.08860       -2.27710       -0.08680
H         -0.52250        1.83710       -0.84900
H         -1.77150        1.77910        1.23910
H         -0.29690        1.43210        2.17280
H          0.86810        4.81170        1.48710
H          1.08250        3.56450        2.72040
H          2.81900        3.36980        0.78500
H          2.15180        1.47860       -0.63350
