15
gdb 19540	4.57837	1.78614	1.69956	1.867	73.37	-0.2326	0.0191	0.2516	810.9969	0.119633	-325.413598	-325.407231	-325.406286	-325.443847	25.545
C         -0.03040       -1.19440        0.00110
C         -0.03210        0.01000        0.00450
C         -0.03350        1.41660        0.00910
C         -0.77560        2.48250        0.78970
C          0.56490        3.07730        1.17880
N          1.20170        2.37680       -0.00540
C          0.53140        3.08490       -1.16640
C         -0.79750        2.48750       -0.74300
H         -0.02520       -2.25600       -0.00210
H         -1.68050        2.35090        1.36920
H          0.69320        4.16540        1.18110
H          0.96160        2.65390        2.10440
H          0.65970        4.17300       -1.16520
H          0.90140        2.66760       -2.10570
H         -1.71860        2.35970       -1.29720
