16
gdb 5232	7.37226	1.14474	1.00337	3.4119	67.27	-0.1983	0.0462	0.2445	1145.5952	0.131826	-379.95146	-379.943779	-379.942835	-379.984002	27.698
C          0.00370        1.51540        0.15890
C         -0.58850        0.24670       -0.42350
O         -0.44670       -0.79390        0.54560
C         -0.93190       -1.98960        0.16320
C         -1.54990       -2.48360       -0.95790
N         -1.83080       -3.82710       -0.77800
C         -1.39390       -4.12910        0.41580
N         -0.83290       -3.04180        1.03980
H         -0.08900        2.33450       -0.55990
H         -0.51750        1.79970        1.07720
H          1.06320        1.37670        0.39120
H         -1.65350        0.37460       -0.66110
H         -0.07220       -0.04860       -1.34720
H         -1.80660       -1.96770       -1.86820
H         -1.44630       -5.09660        0.89140
H         -0.42260       -2.99380        1.95720
