22
gdb 14794	12.03036	0.52693	0.51453	2.1759	76.88	-0.2492	0.0785	0.3278	2171.0296	0.197921	-387.332017	-387.321303	-387.320359	-387.368926	36.226
C         -0.05690        1.47290       -0.05840
C          0.02180       -0.05330        0.02400
C          0.75690       -0.53250        1.26820
O          0.78480       -1.94310        1.26750
C          1.44720       -2.49050        2.38530
C          1.41230       -4.00840        2.27320
C          2.10640       -4.69880        3.43960
O          2.01170       -6.09960        3.23190
H          0.94130        1.92400       -0.08630
H         -0.58880        1.79100       -0.95970
H         -0.58570        1.89340        0.80420
H         -0.98490       -0.48680        0.02660
H          0.53240       -0.45640       -0.85810
H          1.78490       -0.12820        1.28540
H          0.25380       -0.15900        2.17820
H          2.49020       -2.12910        2.42720
H          0.95900       -2.15980        3.31950
H          0.37120       -4.34460        2.22440
H          1.89200       -4.31390        1.33740
H          3.15910       -4.37500        3.49430
H          1.62770       -4.40410        4.38830
H          2.45110       -6.54190        3.96390
