14
gdb 11449	3.44716	1.82781	1.60889	2.2871	53.41	-0.2691	0.0008	0.2699	823.7611	0.107249	-456.844275	-456.837052	-456.836108	-456.876182	25.862
O         -0.43070        1.49330        0.12800
C         -0.12250        0.11450        0.08730
C         -1.38690       -0.73880       -0.01780
O         -2.21710       -0.60830        1.11750
C         -3.24560        0.31020        0.80630
C         -3.23400        0.40570       -0.71150
O         -3.98610        0.97180       -1.44410
O         -2.15060       -0.30310       -1.14450
H         -0.65820        1.76910       -0.76620
H          0.55430       -0.13850       -0.74160
H          0.37910       -0.13450        1.02730
H         -1.14140       -1.79850       -0.15250
H         -4.20820       -0.06720        1.16340
H         -3.06150        1.30180        1.23690
