11
gdb 21351	5.70317	2.27446	1.626	3.5268	58.06	-0.2387	-0.0384	0.2003	691.2241	0.076723	-389.736939	-389.731729	-389.730785	-389.766056	20.322
N          0.03220        1.33110        0.00930
C          1.28380        1.85600       -0.00000
C          2.12040        0.74720       -0.01420
N          3.41860        0.28810       -0.02930
N          3.37480       -1.00020       -0.03580
N          2.06450       -1.43040       -0.02540
C          1.24010       -0.35230       -0.01160
N         -0.04980       -0.03260        0.00270
H         -0.83130        1.84930        0.02050
H          1.45250        2.91980        0.00410
H          1.87620       -2.41780       -0.02900
