13
gdb 4690	5.98477	1.4038	1.13839	2.4284	75.37	-0.1846	-0.004	0.1806	979.7332	0.095432	-361.460668	-361.453402	-361.452457	-361.491852	27.529
N          0.15890        1.32860        0.16680
C         -0.05370       -0.03070        0.05100
C         -1.18410       -0.80360        0.00800
C         -0.72290       -2.15180       -0.02260
C          0.64290       -2.12030        0.00050
O          1.05660       -0.79220        0.04740
C          1.63060       -3.11210       -0.01750
C          2.47420       -3.97420       -0.03360
H          1.04930        1.62820       -0.20750
H         -0.60320        1.89050       -0.18360
H         -2.20370       -0.45440        0.00190
H         -1.32470       -3.04600       -0.06110
H          3.21460       -4.73460       -0.04790
