16
gdb 13593	4.42344	1.20268	1.11693	3.0401	62.82	-0.2708	-0.0438	0.227	1094.0599	0.127824	-420.867611	-420.859133	-420.858189	-420.901005	30.042
C          0.29720        1.50620       -0.46290
C          0.03550        0.09250       -0.01920
O          1.14630       -0.78180        0.10350
C          0.44410       -0.46630        1.30130
C          1.15000        0.36310        2.32710
O          2.08960        1.09080        2.08220
C          0.62450        0.27160        3.75290
O          1.29400        1.15460        4.59720
H          1.17040        1.91960        0.04210
H          0.47480        1.52170       -1.54320
H         -0.57570        2.13500       -0.25860
H         -0.84600       -0.38060       -0.45810
H         -0.15710       -1.28030        1.70960
H         -0.46030        0.47260        3.74170
H          0.73620       -0.77630        4.08440
H          1.98710        1.55410        4.04650
