16
gdb 4971	3.25458	2.28955	1.35708	2.9658	75.58	-0.2077	-0.0079	0.1998	885.5418	0.132857	-342.852941	-342.845777	-342.844833	-342.883852	27.952
C         -0.01100        1.50580       -0.01840
C         -0.00130       -0.00030        0.00300
N         -0.06010       -0.62980       -1.17110
C         -0.04200       -1.96530       -1.19530
C          0.03380       -2.73760       -0.04270
C          0.09010       -2.09350        1.18610
C          0.07480       -0.69820        1.22970
N          0.19380       -0.00770        2.43680
H          0.86820        1.92070        0.48990
H         -0.01860        1.85010       -1.05290
H         -0.89770        1.91760        0.48430
H         -0.09000       -2.43020       -2.17640
H          0.04490       -3.82040       -0.10280
H          0.14810       -2.66230        2.11020
H         -0.05520       -0.54560        3.25470
H         -0.23480        0.90590        2.45330
