12
gdb 18826	4.55883	2.3632	1.9673	4.6578	52.62	-0.2551	-0.0159	0.2393	661.8263	0.085269	-418.451233	-418.44601	-418.445066	-418.480516	20.718
O          0.00160        0.02190        0.19430
C          0.02140        1.19780        0.00010
O         -1.11040        1.97600       -0.07140
C         -0.73270        3.28800       -0.43640
C          0.36270        3.95660        0.38070
O          1.07550        2.96930        1.11430
C          1.19860        2.17150       -0.11340
C          0.67190        3.33840       -0.96730
H         -1.53920        3.86190       -0.87140
H          0.34370        4.96970        0.76340
H          2.18430        1.73350       -0.24290
H          1.01980        3.71240       -1.91960
