17
gdb 14269	3.04499	2.71077	1.87469	2.2282	68.14	-0.2408	0.034	0.2748	757.7207	0.145351	-363.860219	-363.854006	-363.853061	-363.890251	25.13
C         -0.03250        1.37700       -0.27590
C          1.49140        1.50850        0.00220
C          1.39000        0.24230        0.89830
C          0.07640       -0.10680        0.15530
O          0.24960       -1.01400       -0.93120
C          1.20270       -0.79890       -1.87800
N          2.07000        0.09750       -2.06240
C          2.33320        1.26850       -1.24950
H         -0.63690        1.94510        0.43590
H         -0.39210        1.57280       -1.28920
H          1.82400        2.42970        0.48940
H          2.19720       -0.49270        0.84820
H          1.19120        0.48680        1.94500
H         -0.74300       -0.53440        0.73470
H          1.13750       -1.61990       -2.59250
H          2.24530        2.14110       -1.91250
H          3.39400        1.22480       -0.96420
