19
gdb 8115	3.1688	1.89126	1.48942	2.1942	72.28	-0.2256	0.0695	0.2952	926.9373	0.164254	-365.014985	-365.006523	-365.005578	-365.047244	32.101
C         -0.18000        1.53070        0.05660
N          0.10750        0.10110        0.09660
C          1.36420       -0.49090       -0.30440
C          2.60600        0.28350        0.14530
O          2.83740        1.49220       -0.54820
C          2.05490        0.30860        1.61170
C          0.86610       -0.55450        1.13340
C          0.25610       -1.68330        1.91180
H          0.65050        2.18340        0.34340
H         -0.46970        1.79230       -0.96560
H         -1.03570        1.72800        0.71110
H          1.35200       -1.24280       -1.08770
H          3.48760       -0.37070        0.09050
H          3.64720        1.88470       -0.20650
H          2.71010       -0.20900        2.31680
H          1.80280        1.29210        2.01810
H         -0.31290       -1.30490        2.76980
H         -0.42930       -2.25350        1.27970
H          1.02660       -2.35910        2.29900
