20
gdb 17542	4.15105	1.73652	1.62853	0.2016	77.64	-0.2555	0.094	0.3496	895.2315	0.179515	-311.860095	-311.853218	-311.852274	-311.890731	28.584
C         -0.62620        1.09750        0.01350
C          0.88070        1.19260       -0.00030
C          0.21850       -0.15570       -0.00100
C          0.25790       -1.07440        1.22430
C         -0.39850       -2.36430        0.75160
C         -1.70630       -2.24900        0.00640
C         -0.41290       -2.35650       -0.76460
C          0.23450       -1.06170       -1.23630
H         -1.14500        1.35680        0.93120
H         -1.16230        1.36620       -0.89150
H          1.36310        1.52620       -0.91370
H          1.38040        1.51680        0.90720
H          1.29640       -1.28230        1.51510
H         -0.23650       -0.62460        2.09330
H         -0.20070       -3.27650        1.30380
H         -2.35270       -3.12000        0.00810
H         -2.23700       -1.30260        0.01640
H         -0.22570       -3.26280       -1.32990
H         -0.27620       -0.60300       -2.09100
H          1.26730       -1.26650       -1.54890
