17
gdb 14487	4.48502	1.87952	1.7672	1.6868	71.66	-0.2074	0.075	0.2824	830.7978	0.140998	-326.618402	-326.611242	-326.610297	-326.649189	28.107
C          0.02690        1.47070        0.06050
C         -0.02780       -0.01370       -0.02260
C         -0.11220       -0.99100       -1.16890
C          0.76610       -1.95400       -0.33890
N          0.87040       -0.95610        0.79170
C         -0.23900       -1.97950        0.75890
C         -0.49550       -2.93300        1.87410
C         -1.15810       -1.01280       -0.03940
H          1.01740        1.84330       -0.22320
H         -0.71220        1.91800       -0.61280
H         -0.18670        1.81430        1.07870
H         -0.25840       -0.83510       -2.22860
H          1.58050       -2.62460       -0.58930
H         -0.99510       -2.43340        2.71190
H         -1.12730       -3.76650        1.54740
H          0.45160       -3.34120        2.24080
H         -2.22940       -0.87680       -0.10020
