17
gdb 1888	3.78471	2.50825	2.11449	1.6322	59.98	-0.2407	0.0706	0.3113	709.7029	0.148644	-346.861074	-346.853813	-346.852869	-346.892385	26.898
C          0.66940        1.40400       -0.19840
C          0.04640        0.02860        0.01380
C          0.24280       -0.94850       -1.17010
C          1.40830       -1.83100       -0.71730
O          2.61310       -1.16080       -1.06950
C          1.17060       -1.86980        0.79460
O          0.67690       -0.59240        1.14950
H          1.72050        1.29670       -0.47780
H          0.14450        1.94750       -0.99150
H          0.60600        1.99310        0.72110
H         -1.02270        0.14190        0.24060
H         -0.64860       -1.56360       -1.32280
H          0.47500       -0.43960       -2.10750
H          1.37640       -2.83560       -1.16240
H          3.34330       -1.59560       -0.61780
H          0.44620       -2.66530        1.04080
H          2.08690       -2.06200        1.36660
