19
gdb 15802	6.24151	0.91275	0.85785	2.3895	73.38	-0.2549	-0.0212	0.2338	1390.8619	0.164647	-365.064192	-365.055201	-365.054256	-365.098789	31.622
C         -0.31870        1.56330       -0.04420
C          0.08580        0.09130        0.06390
C          0.62810       -0.46930       -1.25030
C          1.00260       -1.93800       -1.19400
O          0.78650       -2.63730       -0.22380
C          1.66230       -2.51230       -2.41170
C          2.89370       -3.33350       -2.16960
N          1.64720       -3.97490       -2.56070
H          0.53160        2.19300       -0.32980
H         -1.10230        1.70760       -0.79670
H         -0.70230        1.93730        0.90980
H          0.84350       -0.03530        0.84500
H         -0.76870       -0.51520        0.38120
H         -0.10880       -0.35300       -2.05980
H          1.50890        0.09320       -1.59330
H          1.58060       -1.94360       -3.33350
H          3.67820       -3.33320       -2.92090
H          3.22460       -3.42360       -1.13870
H          1.19950       -4.34340       -1.71990
