16
gdb 16613	3.4431	2.12467	1.46883	3.2387	71.32	-0.2354	-0.0447	0.1907	864.0288	0.131135	-346.633145	-346.626019	-346.625075	-346.664461	27.022
C          0.02680        1.49820        0.03730
C         -0.02690        0.00780       -0.03500
C         -0.06910       -0.79960       -1.10740
C         -0.03510       -2.24880       -0.73980
C          1.24160       -2.69010       -0.05790
C          0.02760       -2.27640        0.76370
C         -0.01780       -0.83150        1.20680
O         -0.05900       -0.42010        2.34430
H          0.95220        1.83190        0.52050
H         -0.03200        1.95510       -0.95370
H         -0.79430        1.88170        0.65230
H         -0.06920       -0.46620       -2.14010
H         -0.61040       -2.97040       -1.30750
H          1.48280       -3.74840       -0.05470
H          2.09750       -2.02490       -0.09850
H         -0.46540       -3.02470        1.37000
