20
gdb 12856	2.82536	2.25574	1.75723	1.7561	73.54	-0.2415	0.0801	0.3216	864.4265	0.178737	-349.0122	-349.004833	-349.003889	-349.043399	29.214
C         -0.18270        1.53290        0.00310
C          0.03130        0.02850       -0.02730
C         -1.15810       -0.84420        0.44170
O         -0.36200       -1.48720        1.45660
C          0.78670       -0.65790        1.15560
C          1.94060       -1.45900        0.56340
C          1.46760       -1.77690       -0.86860
C          0.72780       -0.49390       -1.30000
H          0.76660        2.06920       -0.10780
H         -0.83890        1.85510       -0.81410
H         -0.64270        1.85330        0.94380
H         -1.99650       -0.28270        0.87590
H         -1.55360       -1.56260       -0.28870
H          1.06400       -0.03650        2.01530
H          2.83960       -0.82910        0.54210
H          2.16860       -2.34760        1.15910
H          2.28510       -2.04220       -1.54400
H          0.77570       -2.62540       -0.84510
H          0.02290       -0.66040       -2.12170
H          1.45210        0.25470       -1.64560
