19
gdb 1673	4.2449	1.58744	1.42574	2.5242	67.72	-0.2375	-0.0074	0.23	960.7105	0.16883	-310.952127	-310.942916	-310.941972	-310.986289	31.979
C          0.01230        1.57580        0.04100
C         -0.02900        0.04520        0.04930
C         -1.44410       -0.55110       -0.04250
C         -2.15290       -0.21000       -1.37110
C         -1.39930       -2.07710        0.08520
C         -2.57440       -2.73620        0.78640
O         -0.47990       -2.72480       -0.36160
H          1.03740        1.93400        0.17750
H         -0.35530        1.99340       -0.90130
H         -0.59510        1.99720        0.85050
H          0.57120       -0.35890       -0.77220
H          0.44260       -0.32210        0.96890
H         -2.05860       -0.15770        0.77910
H         -1.56110       -0.56920       -2.21920
H         -3.14360       -0.67200       -1.43190
H         -2.28840        0.86920       -1.47790
H         -3.52840       -2.35260        0.40980
H         -2.52850       -3.81880        0.66210
H         -2.53810       -2.49390        1.85570
