18
gdb 8218	4.40567	1.23571	1.0882	3.3724	68.78	-0.2379	-0.0094	0.2284	1121.7722	0.152359	-384.943483	-384.934869	-384.933924	-384.977853	30.08
C          0.94980        0.76460        0.00020
C         -0.35770        0.00270        0.01430
O         -1.14870        0.06940        0.92700
C         -0.61590       -0.92070       -1.17770
C         -0.08010       -2.32320       -0.89150
C         -0.05830       -3.34270       -2.05210
C          1.45960       -3.39750       -1.78740
O          1.36590       -2.35910       -0.78780
H          1.77210        0.05790       -0.15680
H          0.96600        1.46570       -0.84300
H          1.08070        1.31140        0.93470
H         -1.69830       -0.98790       -1.32720
H         -0.14510       -0.53730       -2.08930
H         -0.54160       -2.70360        0.02930
H         -0.61270       -4.26720       -1.88690
H         -0.33770       -2.92260       -3.02040
H          1.82380       -4.33940       -1.35920
H          2.11440       -3.10920       -2.61740
