12
gdb 2631	15.68468	0.95707	0.91237	2.8547	52.47	-0.2744	-0.0445	0.2299	1136.8354	0.087246	-360.508895	-360.501149	-360.500205	-360.542098	24.416
O         -0.19130        0.18800        0.54560
C          0.06080        1.08950       -0.20620
C          1.35460        1.88690       -0.14050
O          1.31710        2.85850       -1.16230
C          2.47230        3.66100       -1.19630
C          2.34760        4.63670       -2.28260
N          2.27840        5.41680       -3.13030
H         -0.62840        1.41810       -1.01340
H          1.44150        2.34480        0.85840
H          2.20580        1.19690       -0.26100
H          2.61490        4.20410       -0.24810
H          3.37860        3.05740       -1.36580
