11
gdb 21614	4.17619	2.06716	1.38273	4.138	58.89	-0.253	-0.0963	0.1567	799.5721	0.072067	-426.86187	-426.855019	-426.854075	-426.893239	24.669
N          0.02470        1.32350        0.00820
C         -0.08960       -0.01390        0.00150
N         -1.22840       -0.61340        0.00450
C         -1.21140       -1.98550       -0.00350
N         -2.24830       -2.70290       -0.00170
O          0.05950       -2.61790       -0.01440
N          1.24420       -1.88130       -0.01690
N          1.18980       -0.64700       -0.00960
H          0.93640        1.74540        0.00530
H         -0.80570        1.89060        0.01610
H         -2.00280       -3.69200       -0.00880
