20
gdb 13819	3.47856	1.26635	1.15215	1.791	71.38	-0.2603	0.0806	0.3409	1160.3145	0.175343	-386.127469	-386.118245	-386.117301	-386.161502	33.802
C         -0.00070        1.18870        0.54270
C         -0.08570        0.23280       -0.65460
C         -1.36700       -0.56830       -0.62750
O         -1.52190       -1.67630       -1.53880
C         -1.51240       -1.94480       -0.12680
C         -0.36830       -2.84140        0.34970
C         -0.84920       -4.28740        0.51520
O          0.73330       -2.77640       -0.54000
H          0.90860        1.79400        0.49100
H         -0.85530        1.87390        0.57190
H          0.01700        0.63970        1.49000
H         -0.06270        0.80980       -1.58790
H          0.77080       -0.44340       -0.66520
H         -2.26900        0.04750       -0.57740
H         -2.48850       -2.22570        0.27310
H         -0.01130       -2.47260        1.32090
H         -1.63010       -4.36160        1.28010
H         -1.25470       -4.66800       -0.42860
H         -0.01130       -4.92340        0.81070
H          0.34800       -2.62550       -1.41530
