17
gdb 12508	3.53773	1.9368	1.30658	1.4408	72.13	-0.2353	0.0152	0.2504	940.918	0.142421	-363.86946	-363.861654	-363.86071	-363.902044	28.488
C         -0.38070        1.50150        0.08740
C          0.01310        0.05060        0.00350
N         -0.04270       -0.56800       -1.09450
C          0.14970       -1.98010       -1.32760
C          0.85590       -2.89630       -0.36710
C          1.42110       -2.60670        0.79890
C          1.47350       -1.25570        1.44630
O          0.34370       -0.40490        1.25470
H          0.47290        2.10960        0.40620
H         -0.74340        1.85020       -0.87840
H         -1.16100        1.62890        0.84510
H         -0.85160       -2.39770       -1.52340
H          0.66060       -2.07810       -2.29820
H          0.90860       -3.92450       -0.72390
H          1.92870       -3.39470        1.35080
H          1.54540       -1.36810        2.53240
H          2.37730       -0.71670        1.12240
