16
gdb 701	9.20498	2.24291	2.01331	0.	60.97	-0.2473	0.0925	0.3399	665.6195	0.143702	-234.469389	-234.463258	-234.462314	-234.499031	23.14
C         -0.20830        1.32670       -0.20270
C          1.25290        1.14410        0.13190
C          0.33180       -0.05070        0.09480
C         -0.04560       -0.75980        1.35630
C         -0.96690       -1.95450        1.31920
C          0.49430       -2.13730        1.65370
H         -0.84480        1.79020        0.54420
H         -0.47790        1.56870       -1.22490
H          1.98310        1.26120       -0.66140
H          1.59650        1.48520        1.10320
H          0.44590       -0.70990       -0.76310
H         -0.15950       -0.10060        2.21420
H         -1.69710       -2.07150        2.11260
H         -1.31060       -2.29540        0.34790
H          1.13060       -2.60090        0.90670
H          0.76390       -2.37940        2.67590
