17
gdb 9211	7.53795	0.76494	0.72197	4.3921	68.31	-0.2502	-0.0201	0.2301	1521.2805	0.139902	-401.043881	-401.034308	-401.033364	-401.079984	31.598
C          0.02130        1.47040        0.13960
N         -0.10760        0.02980        0.25150
C         -1.21670       -0.64470       -0.16010
O         -2.19740       -0.09730       -0.63280
C         -1.13340       -2.16680       -0.01430
C         -2.50640       -2.77080        0.30830
C         -2.56060       -4.24940        0.01480
O         -2.92840       -5.09950        0.78340
H          0.85210        1.74740       -0.51880
H         -0.91010        1.84720       -0.28400
H          0.18180        1.93140        1.12020
H          0.65900       -0.49500        0.63810
H         -0.77720       -2.55740       -0.97790
H         -0.38910       -2.45570        0.73570
H         -2.79440       -2.60070        1.34890
H         -3.23780       -2.26350       -0.33560
H         -2.22510       -4.51750       -1.01680
