13
gdb 1075	7.30669	1.89202	1.53715	1.4662	54.83	-0.2247	0.0168	0.2415	750.9907	0.102952	-344.47097	-344.464719	-344.463775	-344.50138	22.715
O          0.30860        1.05150        0.73930
C          0.02020        0.07130       -0.24500
C         -1.38230       -0.45520       -0.15040
C         -2.20880       -0.36740        0.92740
O         -3.41030       -0.95050        0.66420
C         -3.34650       -1.42390       -0.60660
C         -2.13690       -1.15010       -1.15830
H         -0.32360        1.76850        0.62000
H          0.20690        0.45080       -1.26260
H          0.74730       -0.73200       -0.07550
H         -2.09170        0.05520        1.91050
H         -4.23340       -1.91820       -0.96770
H         -1.81290       -1.40440       -2.15600
