20
gdb 19469	4.41905	1.48295	1.42266	0.2914	79.02	-0.2208	0.0198	0.2407	989.897	0.178716	-311.837151	-311.82989	-311.828946	-311.868524	29.216
C         -0.03800        1.57060        0.09340
C          0.00680        0.04150        0.21050
C         -1.37340       -0.59350        0.06360
C         -2.03120       -0.69900       -1.37310
C         -1.15270       -1.97980       -1.57890
C         -1.48500       -2.16540       -0.05870
C         -3.01040       -2.31070       -0.13560
C         -3.36750       -1.35130       -0.99570
H          0.95410        2.00930        0.23780
H         -0.40010        1.88290       -0.89170
H         -0.70780        2.00490        0.84380
H          0.71420       -0.35830       -0.52370
H          0.40640       -0.23330        1.19620
H         -2.04510       -0.16650        0.81640
H         -2.03470        0.12990       -2.08110
H         -1.53620       -2.73750       -2.26570
H         -0.09990       -1.77520       -1.78790
H         -0.92310       -2.84090        0.58720
H         -3.61570       -3.02530        0.40350
H         -4.34580       -1.06430       -1.35400
