15
gdb 3342	4.31165	3.22976	2.20725	1.706	55.48	-0.2389	0.0752	0.3142	618.1807	0.12736	-345.627545	-345.62183	-345.620885	-345.656926	22.233
C         -0.02990        1.53100       -0.05120
C          1.30280        0.79560        0.00120
C          2.10650        0.79380        1.29710
O          1.72700       -0.27510        2.16260
C          0.34680       -0.30230        2.35650
O         -0.36420       -0.66850        1.19320
C          0.00540        0.03110        0.03800
H         -0.31780        2.09840        0.82830
H         -0.34100        1.97590       -0.98990
H          1.88570        0.74990       -0.91220
H          3.16800        0.64130        1.09000
H          2.00170        1.75090        1.83270
H          0.13170       -1.07640        3.09550
H         -0.00700        0.67780        2.72890
H         -0.28790       -0.54110       -0.83500
