20
gdb 17348	4.18522	1.2352	1.06203	1.7292	76.34	-0.2508	0.0867	0.3374	1184.2698	0.175727	-348.977576	-348.968736	-348.967792	-349.01148	32.512
C         -0.13290        1.56860       -0.03140
C          0.01960        0.06320       -0.00650
C          1.31000       -0.60250       -0.40640
C          0.84770       -0.66590        1.03530
C          1.60970        0.06760        2.08510
O          0.98650        0.24020        3.36870
C          2.17580       -0.55410        3.29650
C          2.06020       -2.01360        3.65560
H          0.80480        2.08170        0.20030
H         -0.45100        1.90630       -1.02380
H         -0.88160        1.90450        0.69390
H         -0.88350       -0.46860       -0.29530
H          1.28450       -1.51070       -0.99830
H          2.15410        0.04470       -0.62750
H          0.43660       -1.61470        1.36230
H          2.11570        0.96730        1.72960
H          3.05180       -0.06100        3.72600
H          1.16570       -2.46870        3.22610
H          2.93870       -2.56510        3.30330
H          2.00650       -2.12950        4.74320
