14
gdb 655	5.08056	4.85085	2.70226	1.1836	54.57	-0.2427	0.0243	0.2671	504.8171	0.12179	-270.435807	-270.430526	-270.429581	-270.46427	19.969
C         -0.00100        1.41100        0.01670
C          1.44140        1.92410        0.01580
C          2.23060        1.21870       -1.05630
C          1.78170        0.10130       -1.62290
C          0.49410       -0.54860       -1.19460
O         -0.04100       -0.00640       -0.00300
H         -0.53710        1.71830        0.91900
H         -0.53920        1.82040       -0.85460
H          1.44710        3.00870       -0.15280
H          1.90210        1.76300        1.00000
H          3.17770        1.65330       -1.36460
H          2.33070       -0.38960       -2.42230
H         -0.24610       -0.48820       -2.01520
H          0.65330       -1.61560       -0.99610
