14
gdb 5722	5.03839	1.96245	1.44025	0.6859	62.83	-0.2269	0.0094	0.2363	806.86	0.109837	-382.552788	-382.546734	-382.54579	-382.583305	22.796
C         -0.03880        1.51540        0.09160
O          1.20600        1.94560       -0.48080
C          2.13510        0.86100       -0.63110
C          1.31220       -0.36910       -0.41570
C          1.31810       -1.72250       -0.46110
O          0.09250       -2.19380       -0.08190
C         -0.69630       -1.11610        0.20860
C          0.01120        0.02250        0.01680
H         -0.12420        1.87940        1.12690
H         -0.85410        1.96400       -0.48860
H          2.58100        0.92980       -1.63070
H          2.94750        0.95470        0.10570
H          2.04360       -2.47430       -0.72230
H         -1.70020       -1.34730        0.52240
