15
gdb 18681	3.16572	2.3113	1.56984	2.7594	60.98	-0.2259	-0.0326	0.1933	801.9489	0.120778	-399.78867	-399.782066	-399.781122	-399.819532	25.167
O          0.05520       -0.00600       -0.39120
C          0.00550        1.17150       -0.11790
C         -1.28820        1.95980        0.06560
N         -1.32100        3.10460       -0.85630
C         -0.24040        4.06760       -0.63760
C          1.11890        3.47190       -0.28060
O          1.24150        2.97170        1.04540
C          1.24780        2.01520       -0.02890
H         -2.13540        1.29850       -0.12920
H         -1.35880        2.33390        1.09300
H         -1.27340        2.75600       -1.80850
H         -0.14290        4.68140       -1.53850
H         -0.52410        4.74310        0.18090
H          2.00130        4.00840       -0.63270
H          2.18880        1.49660       -0.19930
