14
gdb 4726	6.8348	1.27648	1.07711	1.9515	77.61	-0.1803	0.0037	0.184	1036.3712	0.107953	-341.585805	-341.578158	-341.577214	-341.617291	29.086
N         -0.03690        1.44540        0.15580
C          0.00770        0.04320        0.04630
C         -1.07240       -0.82260        0.01400
N         -0.58320       -2.10530       -0.00990
C          0.79140       -2.08520       -0.00080
C          1.18110       -0.75180        0.03720
C          1.55420       -3.26760       -0.02680
C          2.19470       -4.28930       -0.05060
H          0.74720        1.88890       -0.30520
H         -0.89390        1.83740       -0.21310
H         -2.13220       -0.62570        0.01460
H         -1.13490       -2.94390       -0.04380
H          2.20140       -0.40180        0.06230
H          2.76790       -5.18240       -0.06950
