14
gdb 8754	4.29669	1.43522	1.08321	4.3991	68.64	-0.2547	-0.056	0.1987	1018.001	0.105637	-378.711633	-378.703139	-378.702195	-378.745478	29.453
C         -0.02300        1.45400       -0.01840
N         -0.00580       -0.00730       -0.00190
C         -0.00770       -0.66000        1.22820
O         -0.02190       -0.08130        2.28960
C          0.01210       -0.74580       -1.19380
N          0.03470       -2.02550       -1.18290
C          0.00360        0.03150       -2.40530
C         -0.00200        0.61340       -3.45820
H          0.86490        1.84990       -0.51770
H         -0.91350        1.82890       -0.52930
H         -0.03360        1.77750        1.02140
H          0.00470       -1.75060        1.11500
H          0.04380       -2.38510       -2.13400
H         -0.00710        1.12820       -4.38810
