14
gdb 15032	2.70929	1.78009	1.21667	1.678	62.35	-0.2697	-0.0597	0.21	960.4533	0.106321	-378.704083	-378.696092	-378.695148	-378.737578	27.27
O         -0.22340        0.16500        0.28590
C         -0.04520        1.29590       -0.06670
C          1.35760        1.93840       -0.09540
C          1.49930        2.79170       -1.27170
N          1.57030        3.48860       -2.19130
C          1.55710        2.71840        1.21390
C          2.51610        3.84380        1.31400
N          1.06410        4.08740        1.38610
H         -0.87610        1.97290       -0.35280
H          2.08280        1.11850       -0.13900
H          1.40290        2.07980        2.08040
H          3.05690        4.00170        2.24200
H          3.04580        4.14410        0.41430
H          0.74190        4.46940        0.49850
