15
gdb 15203	2.45371	1.95359	1.49579	4.0344	71.69	-0.2625	0.011	0.2735	908.2132	0.117402	-325.498804	-325.490575	-325.48963	-325.531382	29.84
C         -0.10920        1.54580        0.05940
C          0.02900        0.04570       -0.03180
C          0.70580       -0.61950       -1.21450
C          1.27250        0.14890       -2.28140
C          1.74000        0.78400       -3.18860
C          1.36820       -0.64160        0.17720
C          2.55220        0.13030        0.42340
N          3.50770        0.74530        0.64060
H          0.75840        2.05500       -0.36490
H         -0.99720        1.87810       -0.48700
H         -0.21290        1.85900        1.10280
H         -0.80870       -0.51600        0.37140
H          0.30020       -1.58130       -1.51460
H          2.16500        1.34560       -3.98360
H          1.36030       -1.60110        0.68320
