15
gdb 6309	3.97666	1.24363	1.08452	2.0976	64.17	-0.2655	0.0311	0.2966	1096.0986	0.116414	-399.811488	-399.802543	-399.801599	-399.845578	31.82
C         -0.03480        1.55850        0.03760
C         -0.02390        0.02840        0.00100
O         -1.38180       -0.47310        0.03870
C         -1.88230       -0.70450        1.28110
N         -3.17610       -1.12550        1.18120
O         -1.28040       -0.53330        2.31630
C          0.60320       -0.50100       -1.20520
C          1.14990       -0.90590       -2.19490
H          0.98800        1.94010       -0.02130
H         -0.60620        1.95520       -0.80510
H         -0.48310        1.89500        0.97520
H          0.48970       -0.35040        0.88990
H         -3.51660       -1.44210        0.28930
H         -3.58390       -1.51480        2.01350
H          1.63280       -1.27450       -3.06610
