16
gdb 8551	4.01547	2.25463	1.86791	1.2493	63.32	-0.2419	0.0655	0.3075	738.8765	0.131105	-383.686896	-383.6806	-383.679656	-383.716868	25.691
O          0.05680        1.41600        0.01580
C          0.02850        0.02090        0.00200
C          0.47570       -0.72850       -1.28530
C         -0.68750       -1.72780       -1.06980
O         -0.38350       -2.68980       -0.03520
C         -0.74710       -1.74710        0.99800
C          0.40120       -0.75260        1.29880
C         -1.33910       -0.75880       -0.04470
H          0.97790        1.69960        0.04150
H          0.27230       -0.09410       -2.15440
H          1.48780       -1.13900       -1.34200
H         -1.16620       -2.19010       -1.93440
H         -1.27460       -2.22520        1.82480
H          1.40860       -1.16470        1.40610
H          0.14780       -0.13440        2.16630
H         -2.33410       -0.32440       -0.06930
