18
gdb 12244	3.26769	1.5461	1.1811	1.6158	69.55	-0.2467	0.0218	0.2686	1057.4417	0.154165	-381.120592	-381.111956	-381.111012	-381.153943	31.244
C          0.22990        1.52050        0.03870
C          0.13770       -0.00830        0.02830
C          0.45860       -0.60000       -1.32900
O          1.87150       -0.40070       -1.70260
C          2.12390       -1.75500       -1.67670
N          3.19920       -2.39380       -1.77670
C          0.66660       -2.13930       -1.43380
N          0.27670       -2.97380       -0.32000
H          1.23230        1.84870       -0.25110
H         -0.48450        1.96510       -0.66280
H          0.01450        1.92020        1.03370
H          0.82190       -0.42670        0.77640
H         -0.86900       -0.34050        0.30750
H         -0.18100       -0.17000       -2.10700
H          3.99640       -1.76710       -1.90300
H          0.21010       -2.53700       -2.34430
H          0.33510       -3.95090       -0.58560
H          0.91710       -2.85450        0.45850
