17
gdb 19723	3.99356	2.33249	2.13319	2.9809	65.89	-0.2315	0.0771	0.3086	718.5437	0.146412	-363.839395	-363.833784	-363.83284	-363.868755	23.887
C         -0.02510        1.55030        0.00980
C          1.49600        1.91710       -0.00290
C          2.13990        0.50550        0.00580
O          1.20890       -0.25640       -0.76770
C          0.04530        0.00040        0.02340
C          0.49880       -0.39980        1.43230
N          1.51940       -1.46760        1.43770
C          1.94090       -0.05210        1.42030
H         -0.55330        1.95500        0.87770
H         -0.53010        1.90520       -0.89110
H          1.76950        2.45970       -0.91030
H          1.79550        2.52130        0.85810
H          3.13470        0.42000       -0.43080
H         -0.80810       -0.53070       -0.39780
H         -0.14330       -0.23680        2.29060
H          1.60990       -1.80990        2.39220
H          2.45180        0.38890        2.26890
