14
gdb 1064	7.33744	1.92844	1.55638	1.3152	57.91	-0.2387	0.0086	0.2473	771.9223	0.114746	-324.614459	-324.608044	-324.6071	-324.645273	22.939
C         -0.76830        1.10780        0.05400
C          0.56860        0.37020       -0.05380
C          0.98570       -0.31830        1.20620
C          0.37230       -0.39330        2.41360
O          1.15490       -1.14320        3.25250
C          2.21600       -1.48490        2.49060
N          2.18290       -1.03580        1.28110
H         -0.73280        1.88410        0.82540
H         -1.02080        1.59050       -0.89390
H         -1.58240        0.42030        0.30620
H          0.52440       -0.37420       -0.85890
H          1.36210        1.06900       -0.34740
H         -0.54360       -0.01220        2.82910
H          2.97530       -2.09020        2.96070
