11
gdb 5183	8.26878	1.27461	1.10841	3.5116	54.18	-0.2518	-0.031	0.2208	961.9458	0.07244	-434.580143	-434.573624	-434.57268	-434.611947	22.209
O          0.09180       -0.02320        0.06360
C         -0.00390        1.15400       -0.04120
O          1.10540        1.96450        0.14920
C          0.91930        3.29350        0.10620
N         -0.17240        3.97570        0.19520
C          0.27080        5.29570        0.08870
C          1.61310        5.30880       -0.04790
O          2.04820        3.99890       -0.04090
H         -0.90180        1.73590       -0.28640
H         -0.41700        6.12470        0.12750
H          2.37370        6.06210       -0.14750
