20
gdb 18260	4.13146	1.4935	1.24952	1.516	73.54	-0.2264	0.0832	0.3096	1036.2431	0.178336	-348.995921	-348.988208	-348.987264	-349.027882	29.89
C         -0.00590        1.55130        0.07520
C         -0.02010        0.02020        0.00130
C          0.68750       -0.54230       -1.23660
C          2.20480       -0.22720       -1.29090
O          2.83620       -1.29130       -1.99980
C          2.03400       -2.43660       -1.86610
C          1.60590       -2.86350       -0.48590
C          0.66840       -2.06040       -1.37780
H          1.01460        1.94390        0.13950
H         -0.47500        1.99410       -0.81070
H         -0.55130        1.90950        0.95360
H          0.44640       -0.39910        0.90200
H         -1.05870       -0.33250        0.00520
H          0.20730       -0.12550       -2.13260
H          2.44130        0.70490       -1.81080
H          2.61190       -0.15320       -0.27050
H          2.23120       -3.16390       -2.64460
H          1.36840       -3.91230       -0.34260
H          2.06150       -2.39080        0.37780
H         -0.22990       -2.53360       -1.75740
