22
gdb 7591	2.64204	1.6161	1.38634	1.235	78.07	-0.2487	0.071	0.3197	1066.068	0.197725	-350.201615	-350.191788	-350.190844	-350.235301	37.149
C          2.67120        0.37700        0.89090
C          1.48880       -0.53750        0.53130
C          0.16560        0.02860        1.06720
C          1.41550       -0.76480       -0.97450
O          1.15840        0.40600       -1.71900
C          2.29130       -1.80180       -1.64000
C          0.78350       -1.98650       -1.58200
C          0.15620       -3.11010       -0.78690
H          3.61620       -0.02030        0.50530
H          2.53090        1.38430        0.48140
H          2.76800        0.48280        1.97590
H          1.67040       -1.51060        1.00310
H         -0.07980        0.96360        0.55520
H         -0.66130       -0.66840        0.90130
H          0.22920        0.22990        2.14160
H          1.96200        0.93720       -1.71940
H          2.73670       -1.54770       -2.59570
H          2.90300       -2.43840       -1.00670
H          0.27630       -1.76360       -2.51680
H          0.69910       -3.31140        0.14130
H         -0.88340       -2.88630       -0.52380
H          0.15690       -4.03770       -1.37020
