14
gdb 4580	5.84594	1.56079	1.24134	1.2359	67.81	-0.2381	-0.0442	0.1939	928.1787	0.108769	-378.787945	-378.781086	-378.780142	-378.819185	25.468
C         -0.04000        1.49960        0.02280
C          0.01110       -0.00330        0.01410
N          0.13290       -0.61770       -1.17720
C          0.17850       -1.93950       -1.19280
C          0.10240       -2.68180       -0.00340
O          0.15230       -4.02680       -0.06030
N         -0.01740       -2.09850        1.17750
C         -0.06250       -0.76090        1.17940
H          0.86740        1.92000       -0.42250
H         -0.88580        1.86120       -0.57090
H         -0.13910        1.88940        1.03920
H          0.27670       -2.44330       -2.15020
H          0.08540       -4.34120        0.85230
H         -0.16100       -0.28150        2.15000
