15
gdb 15983	3.99914	1.60314	1.25944	2.2554	65.45	-0.2564	0.0048	0.2612	965.8914	0.117723	-399.760168	-399.752435	-399.751491	-399.79273	27.136
C         -0.05810        1.40380        0.14350
N         -0.06100       -0.04700        0.26090
C         -1.08750       -0.69020       -0.03380
O         -2.33470       -0.27660       -0.50590
C         -2.85910       -1.63990       -0.50510
C         -1.48870       -2.13810       -0.04650
C         -0.71430       -3.34380       -0.33890
O         -1.24170       -3.07740        0.96860
H          0.70070        1.70070       -0.58890
H         -1.02220        1.83070       -0.15520
H          0.23970        1.83640        1.10440
H         -3.66140       -1.76020        0.22730
H         -3.19170       -1.93770       -1.50250
H         -1.18540       -4.16640       -0.87470
H          0.36710       -3.26610       -0.42860
