19
gdb 14967	4.31485	1.46797	1.15475	1.7878	73.13	-0.2382	0.035	0.2732	1077.6962	0.166753	-365.093094	-365.08499	-365.084046	-365.1261	29.725
C          0.13800        1.51970       -0.06880
C         -0.05730        0.01020        0.04410
C         -1.49980       -0.42740        0.07780
N         -2.46360        0.39540        0.09430
C         -3.83310       -0.10580        0.07180
C         -3.93770       -1.55510       -0.41160
C         -2.86210       -2.36740        0.29510
O         -1.56710       -1.79240        0.08550
H          1.20440        1.76430       -0.08200
H         -0.31900        1.90690       -0.98280
H         -0.32930        2.03880        0.77110
H          0.42600       -0.51390       -0.79020
H          0.42940       -0.38090        0.94720
H         -4.25690       -0.00960        1.08130
H         -4.42560        0.55870       -0.56720
H         -4.92720       -1.97760       -0.20860
H         -3.77200       -1.60300       -1.49400
H         -3.05670       -2.40790        1.37570
H         -2.79570       -3.39240       -0.07800
