19
gdb 7849	3.76911	1.31394	1.17943	3.2889	72.52	-0.2378	0.0326	0.2704	1110.6048	0.16406	-365.089093	-365.079761	-365.078816	-365.123944	33.029
C         -0.31000        1.33620        0.41770
C          0.07730       -0.09620        0.13470
C          1.43750       -0.43810       -0.42740
C          1.08980       -0.82320        0.98780
N          1.75590       -0.13960        2.05690
C          1.16720        0.02500        3.28460
C          2.08200        0.59070        4.36210
O          0.00610       -0.26810        3.49630
H          0.55400        1.92230        0.74330
H         -0.72090        1.81380       -0.47810
H         -1.06160        1.38200        1.21130
H         -0.74200       -0.72470       -0.20310
H          1.53380       -1.22620       -1.16570
H          2.13520        0.38410       -0.55740
H          0.88440       -1.87260        1.18560
H          2.75100       -0.00140        1.98060
H          2.91710        1.16910        3.95710
H          1.49010        1.22130        5.02690
H          2.48990       -0.23240        4.95840
