20
gdb 13615	3.10351	1.34553	1.05455	2.7745	71.16	-0.249	0.0727	0.3216	1160.3812	0.175446	-386.117762	-386.10834	-386.107396	-386.15183	34.634
C         -0.23350        1.42630        0.04960
C          0.09920       -0.05970       -0.12820
C          0.94420       -0.29910       -1.39100
O          0.31700        0.16490       -2.57900
C          0.81180       -0.62750        1.08590
C          0.02370       -1.08910        2.29810
C          0.72930       -2.08990        1.41730
O         -0.01730       -2.89140        0.54410
H          0.67490        2.00770        0.24920
H         -0.68960        1.82490       -0.85990
H         -0.92000        1.58280        0.88730
H         -0.83510       -0.62160       -0.25830
H          1.88600        0.25920       -1.31960
H          1.19500       -1.36660       -1.46390
H         -0.45750       -0.38660       -2.72970
H          1.77080       -0.15810        1.29670
H          0.41020       -0.89590        3.29300
H         -1.05820       -1.05120        2.21510
H          1.62470       -2.56880        1.81350
H         -0.48390       -3.54940        1.06960
