15
gdb 16715	6.17373	1.4052	1.25462	1.8641	76.72	-0.2231	-0.0232	0.2	952.377	0.119739	-325.477927	-325.471168	-325.470223	-325.508647	26.652
C          0.07290       -1.17030        0.08110
C         -0.01580        0.03130        0.04070
C         -0.05790        1.44340       -0.01690
C         -1.15920        2.21630       -0.04520
C         -0.79720        3.65760       -0.02080
N         -0.06230        4.03980        1.22470
C          0.69180        3.71480       -0.00180
C          1.21810        2.28620       -0.03470
H          0.13320       -2.22950        0.12050
H         -2.17630        1.84610       -0.04670
H         -1.41540        4.40310       -0.50870
H         -0.09690        5.05440        1.31620
H          1.24110        4.50350       -0.50420
H          1.85570        2.06260        0.82690
H          1.80630        2.08760       -0.93870
