18
gdb 8338	5.70629	1.19215	1.18595	1.3217	67.3	-0.2454	0.0626	0.308	1052.6592	0.153656	-384.899934	-384.892214	-384.89127	-384.93246	28.932
O          0.71500        0.53660       -0.92020
C         -0.00810       -0.26310       -0.02370
C          0.18240       -0.09900        1.50840
C         -1.32850       -0.39270        1.67590
C         -1.79060       -1.76710        2.20810
O         -2.57430       -1.15210        3.24950
C         -2.19130        0.16940        2.81710
C         -1.53020       -0.03650        0.18280
H          0.56670        1.45890       -0.68510
H          0.19030       -1.29510       -0.32880
H          0.89820       -0.74730        2.02070
H          0.40890        0.94450        1.76090
H         -2.41180       -2.35820        1.52160
H         -0.99850       -2.40980        2.61550
H         -1.64430        0.71610        3.59730
H         -3.05760        0.76770        2.50340
H         -1.78330        1.02450        0.06400
H         -2.23390       -0.63290       -0.40380
