15
gdb 1042	6.73652	1.9268	1.67619	3.4175	62.81	-0.2142	0.0354	0.2496	770.3793	0.127282	-304.746925	-304.740221	-304.739277	-304.778331	24.253
C          0.05750        1.45200       -0.36020
C         -0.05590        0.04170        0.24640
C         -1.44170       -0.51830        0.18890
N         -2.31970       -0.51590        1.17020
C         -3.46060       -1.09060        0.65730
C         -3.27540       -1.44650       -0.65030
N         -1.97960       -1.07420       -0.94030
H          1.08150        1.82880       -0.27760
H         -0.21730        1.45510       -1.42030
H         -0.60810        2.14710        0.15920
H          0.64270       -0.63540       -0.26150
H          0.23430        0.06870        1.29980
H         -4.34620       -1.21840        1.26120
H         -3.91140       -1.91880       -1.38030
H         -1.51190       -1.20030       -1.82220
