9
gdb 500	11.5039	1.86186	1.69559	3.8224	41.37	-0.3057	-0.0259	0.2797	649.8622	0.060309	-321.247305	-321.241236	-321.240291	-321.277891	19.01
O          0.03850        0.05850       -0.00860
C          0.18030        1.22470       -0.18810
O          0.73830        2.03610        0.75100
C          0.87910        3.41190        0.41490
C          2.18390        3.69500       -0.19650
N          3.20400        3.92530       -0.68580
H         -0.12510        1.77130       -1.10080
H          0.08430        3.74110       -0.26610
H          0.78190        3.97490        1.34610
