11
gdb 20781	3.36632	2.42782	1.42288	2.4591	56.6	-0.266	-0.1125	0.1536	784.888	0.069424	-430.639417	-430.632469	-430.631524	-430.671093	24.516
C         -0.03310        1.50780        0.02870
C         -0.01010        0.01480       -0.00580
N         -0.05270       -0.57560       -1.15690
O         -0.03160       -1.93340       -1.18600
N          0.03630       -2.72990        0.01930
N          0.07670       -2.16960        1.10980
C          0.05940       -0.73580        1.24650
O          0.10140       -0.24550        2.34610
H          0.86240        1.88560        0.53220
H         -0.08520        1.90640       -0.98530
H         -0.89190        1.85670        0.61080
