16
gdb 2534	3.28303	2.10888	1.3627	3.3389	61.7	-0.2858	0.0187	0.3045	893.1407	0.135096	-325.784144	-325.77574	-325.774796	-325.816962	28.68
C         -0.10180        1.55480        0.11740
C          0.03170        0.03310        0.03930
C          0.71660       -0.42240       -1.25600
O          2.02860        0.08870       -1.26970
C          2.70610       -0.07430       -2.50340
C          0.71840       -1.90190       -1.36010
N          0.72820       -3.05430       -1.44570
H          0.87840        2.03340        0.06140
H         -0.71680        1.94150       -0.70290
H         -0.57630        1.84960        1.05730
H          0.61900       -0.34700        0.88150
H         -0.95150       -0.44630        0.09070
H          0.14980       -0.04080       -2.12300
H          3.68750        0.38880       -2.38610
H          2.83610       -1.13460       -2.75780
H          2.16830        0.42360       -3.32390
