13
gdb 2899	7.09484	1.8894	1.52039	3.161	58.88	-0.2491	-0.0663	0.1827	755.3957	0.101697	-344.465017	-344.458585	-344.457641	-344.495829	22.14
O         -0.04520       -0.01600       -0.00910
C          0.00790        1.19410       -0.02000
C          1.25870        1.95190        0.01800
C          1.38290        3.28270        0.00840
C          2.83300        3.65430        0.05770
O          3.53900        2.42110        0.09740
C          2.62630        1.32170        0.07500
H         -0.91410        1.81460       -0.06040
H          0.57610        4.00510       -0.02910
H          3.13770        4.24270       -0.82320
H          3.07270        4.26230        0.94530
H          2.75820        0.70040        0.97170
H          2.82340        0.68230       -0.79680
