18
gdb 19736	3.86739	2.42881	2.20706	1.5499	69.82	-0.2319	0.0922	0.3241	721.925	0.158033	-347.79769	-347.792124	-347.79118	-347.826963	24.072
C         -0.04550        1.57110        0.05450
C          1.48470        1.36630        0.00020
O          1.76040        0.74520        1.26750
C          0.85760       -0.39410        1.20060
C          1.69650       -1.57260        0.70280
C          2.15200       -1.06940       -0.70050
C          1.24070        0.14080       -0.94140
C         -0.01550        0.02510       -0.00930
H         -0.44560        2.05920        0.94620
H         -0.45960        2.01350       -0.85440
H          2.20930        2.15710       -0.19240
H          0.35660       -0.52790        2.16160
H          2.53040       -1.77990        1.37770
H          1.08640       -2.48070        0.62800
H          3.20820       -0.78450       -0.70580
H          2.01740       -1.83200       -1.47290
H          1.03900        0.41140       -1.97770
H         -0.88340       -0.59100       -0.24280
