13
gdb 1630	3.97664	2.10656	1.612	4.2076	52.33	-0.2586	-0.0534	0.2051	762.5851	0.097911	-381.61055	-381.602683	-381.601739	-381.643512	26.399
C         -0.02770        1.41450        0.06430
C          0.02180       -0.09000       -0.01870
O          1.05310       -0.71760       -0.09880
C         -1.30230       -0.88550        0.00030
O         -1.06720       -2.23340       -0.20220
C         -2.05370       -0.61030        1.31570
O         -2.20350       -1.42170        2.18330
H          0.97370        1.82380       -0.07310
H         -0.70740        1.82430       -0.68960
H         -0.41140        1.72400        1.04390
H         -1.94070       -0.46700       -0.79950
H         -0.10210       -2.33830       -0.16600
H         -2.46690        0.42260        1.39320
