14
gdb 17608	3.90639	1.70359	1.22524	0.9854	60.41	-0.2399	-0.0432	0.1967	934.8667	0.107044	-415.886825	-415.878918	-415.877974	-415.919513	27.972
N         -0.06140        1.21720       -0.02580
C          0.08830       -0.11390       -0.19710
O          1.14240       -0.70550       -0.32360
C         -1.28640       -0.82660       -0.19030
O         -2.31190       -0.22050        0.05620
N         -1.23300       -2.14020       -0.55840
C         -0.46460       -3.21960        0.00970
C         -1.97040       -3.23490        0.02090
H          0.74780        1.81210        0.02000
H         -0.99110        1.58310        0.10420
H          0.07820       -3.83700       -0.69950
H          0.05490       -3.02810        0.94320
H         -2.48430       -3.03950        0.95840
H         -2.50640       -3.86940       -0.67870
