16
gdb 16317	3.26176	1.96943	1.41522	1.7208	66.24	-0.2314	0.0192	0.2506	895.2766	0.130683	-379.876401	-379.868823	-379.867879	-379.908354	28.218
C         -0.36980        1.40340       -0.01590
N          0.11270        0.02160        0.08740
C          0.78280       -0.45000       -1.05920
C          0.00710       -0.91170       -2.30210
C          0.94940       -1.84600       -1.63740
O          2.30310       -1.53960       -2.06970
C          2.22450       -0.28520       -1.45890
N          3.10960        0.57780       -1.25480
H          0.42600        2.13750       -0.20560
H         -1.09700        1.46840       -0.83120
H         -0.88080        1.67060        0.91320
H          0.70680       -0.07760        0.90360
H         -1.04470       -1.07720       -2.08990
H          0.24000       -0.52150       -3.28760
H          0.76230       -2.82940       -1.23070
H          4.01100        0.28760       -1.63780
