20
gdb 6117	2.7696	1.75721	1.43803	2.8652	75.05	-0.2345	-0.0128	0.2217	989.9132	0.174554	-349.02834	-349.019312	-349.018368	-349.061426	33.955
C         -0.63740        1.24970       -0.07250
C          0.10240       -0.08000       -0.07590
C          1.47180       -0.17710       -0.75820
O          1.96540        0.37980       -1.69740
C          2.00730       -1.12210        0.32510
C          0.78590       -0.69320        1.21230
C          1.19280        0.36970        2.23550
C          0.01430       -1.83130        1.87390
H         -0.02690        2.05270        0.34970
H         -0.89380        1.53670       -1.09670
H         -1.56660        1.18930        0.50340
H         -0.53600       -0.85690       -0.52080
H          1.95400       -2.16840        0.00490
H          3.01380       -0.91900        0.70000
H          1.77340        1.17750        1.77700
H          0.31690        0.81910        2.71520
H          1.81260       -0.07530        3.02160
H          0.61050       -2.31050        2.65880
H         -0.90870       -1.46550        2.33850
H         -0.26060       -2.60190        1.14560
