19
gdb 18725	3.16235	2.21146	1.51561	0.5077	71.13	-0.2187	0.0889	0.3076	884.3088	0.167283	-365.037534	-365.030245	-365.029301	-365.068804	28.558
C         -0.11510        1.52010       -0.03080
C          0.06380        0.00900        0.01410
O          0.75730       -0.38770       -1.16080
C          0.93580       -1.79400       -1.18450
C          1.93890       -2.23760       -0.11900
N          1.71250       -1.61180        1.19670
C          2.26410       -0.26740        1.38050
C          0.79760       -0.46040        1.26210
H          0.85690        2.02100       -0.03960
H         -0.66370        1.80930       -0.93140
H         -0.67520        1.86470        0.84380
H         -0.93210       -0.47050        0.00830
H         -0.03500       -2.29260       -1.02800
H          1.29160       -2.05780       -2.18490
H          1.87720       -3.32600        0.00390
H          2.95740       -2.00790       -0.45180
H          2.72400       -0.07470        2.34660
H          2.76940        0.18720        0.53040
H          0.18890       -0.43690        2.16540
