13
gdb 2142	3.86703	3.19558	1.85386	2.4801	54.72	-0.2526	-0.0299	0.2227	654.0994	0.101649	-344.475122	-344.468847	-344.467903	-344.505315	23.236
O          0.31020        1.40540       -0.11570
C          0.11310        0.02530        0.07760
C          0.70890       -0.53220        1.34400
C         -0.14010       -1.33990        1.98420
C         -1.48910       -1.42970        1.30960
C         -1.37660       -0.32070        0.26290
O         -2.26600        0.29230       -0.26830
H         -0.50480        1.73300       -0.52190
H          0.48860       -0.54200       -0.79670
H          1.72590       -0.31320        1.64500
H          0.08790       -1.88720        2.89150
H         -1.65640       -2.39690        0.81450
H         -2.34650       -1.26420        1.97080
