24
gdb 13452	3.16786	1.08993	0.9833	0.0594	85.77	-0.2559	0.0803	0.3362	1368.1316	0.22227	-314.270934	-314.260681	-314.259737	-314.306142	37.283
C         -0.83630        0.53860        3.39290
C         -0.79370       -0.81210        2.67390
C         -1.81540       -0.91910        1.53240
C         -1.73490       -2.24040        0.79270
C         -2.49250       -3.48550        1.21950
C         -3.41400       -3.52820        2.42110
C         -2.85730       -2.78040       -0.07270
C         -4.16890       -2.04920       -0.27440
H         -0.09580        0.58850        4.19750
H         -0.63110        1.36270        2.70020
H         -1.82180        0.72050        3.83670
H          0.21370       -0.98220        2.27120
H         -0.97080       -1.62100        3.39380
H         -2.81990       -0.75420        1.93730
H         -1.64380       -0.09790        0.82180
H         -0.73510       -2.43240        0.40650
H         -1.94370       -4.41520        1.08580
H         -3.95240       -2.59080        2.57850
H         -4.16490       -4.31860        2.30800
H         -2.85180       -3.73900        3.33790
H         -2.52490       -3.29060       -0.97430
H         -4.51380       -1.53590        0.62610
H         -4.07670       -1.29420       -1.06340
H         -4.96000       -2.74490       -0.57650
