12
gdb 9027	4.71566	0.93369	0.80382	1.3114	77.94	-0.254	-0.0342	0.2199	1324.0996	0.08013	-344.096459	-344.087911	-344.086967	-344.129709	30.458
O         -0.06440        1.44660        0.01140
C          0.04330        0.02810       -0.00350
C          0.68420       -0.47080       -1.22940
C          1.21570       -0.84910       -2.23770
C          0.73150       -0.48930        1.18700
C          1.30140       -0.88820        2.17660
C          1.94390       -1.33910        3.28760
C          2.51410       -1.73840        4.27390
H          0.83060        1.80460       -0.02670
H         -0.99680       -0.32380        0.01630
H          1.68130       -1.19050       -3.12950
H          3.01540       -2.09110        5.14100
