17
gdb 17968	2.75883	2.34807	1.41369	1.4003	65.62	-0.2383	0.02	0.2583	877.4635	0.144193	-400.983067	-400.975824	-400.974879	-401.014867	26.994
C          0.03440        1.34200        0.17240
C          1.51580        1.67060       -0.08440
O          1.78360        2.28350       -1.34750
C          1.58170        1.66720       -2.54040
N          1.22930        0.51490       -2.90410
C          0.87960       -0.63130       -2.08460
C         -0.44040       -0.49920       -1.29840
O         -0.30840       -0.01330        0.02170
H         -0.19030        1.57670        1.21800
H         -0.58830        1.99440       -0.46070
H          1.84620        2.42660        0.63240
H          2.12750        0.77590        0.06440
H          1.79780        2.40910       -3.31110
H          0.75780       -1.47260       -2.77640
H          1.67290       -0.92380       -1.38550
H         -1.14310        0.12120       -1.87650
H         -0.88050       -1.49420       -1.18240
