14
gdb 11187	4.03553	1.58072	1.38225	3.7572	63.17	-0.2518	0.0271	0.2788	897.4376	0.108849	-378.73225	-378.725082	-378.724138	-378.763741	26.865
O          0.06600        0.01480       -0.19470
C          0.01520        1.21630       -0.07890
N         -1.09100        2.03010       -0.27170
C         -0.83840        3.38580        0.17760
C          0.71360        3.46180        0.06050
N          1.06750        2.06050        0.28870
C          1.16930        3.97440       -1.23460
C          1.56940        4.39310       -2.28760
H         -1.99910        1.60530       -0.17770
H         -1.32590        4.13170       -0.45320
H         -1.13740        3.54910        1.22240
H          1.11840        4.09570        0.85620
H          1.99320        1.74330        0.04250
H          1.91740        4.75790       -3.22270
