19
gdb 2012	5.18386	1.99081	1.91531	0.2264	71.65	-0.2866	0.0912	0.3778	784.7641	0.172823	-273.743311	-273.736471	-273.735527	-273.774027	26.71
C         -0.03440        1.53150        0.04420
C          0.02850        0.00260       -0.04940
C          0.73450       -0.49500       -1.28700
C          2.21290       -0.22070       -1.72170
C          1.61540       -1.12940       -2.83100
C          0.98160       -1.98080       -1.69700
C          0.34320       -0.23940       -2.78070
H          0.96950        1.96860        0.06200
H         -0.56700        1.95890       -0.81180
H         -0.55340        1.85030        0.95320
H          0.53770       -0.40080        0.83600
H         -0.98890       -0.41040       -0.03120
H          2.46100        0.80540       -2.00860
H          2.99510       -0.65930       -1.09430
H          2.12430       -1.49630       -3.72290
H          1.66920       -2.55340       -1.06690
H          0.09630       -2.56900       -1.95800
H         -0.59040       -0.69520       -3.12500
H          0.44610        0.78530       -3.14990
