12
gdb 5057	3.57416	2.37579	1.6242	3.6673	65.06	-0.2496	-0.0864	0.1633	747.5576	0.085428	-377.544267	-377.538161	-377.537217	-377.574558	22.606
O         -0.12770        0.43010       -1.14300
C         -0.05010        1.28900       -0.29760
C         -1.26900        1.85410        0.38070
N         -1.60140        3.08880        0.32130
C         -0.80420        4.09160       -0.16700
C          0.55680        4.14720       -0.13070
C          1.39810        3.05410        0.27440
N          1.13620        1.79100        0.21020
H         -1.92920        1.15980        0.90230
H         -1.35840        4.97350       -0.47770
H          1.03600        5.10300       -0.32130
H          2.37900        3.31580        0.67710
