16
gdb 21156	3.33488	1.80203	1.20088	4.0396	68.65	-0.2002	0.0004	0.2006	988.7522	0.130463	-379.910294	-379.902074	-379.901129	-379.943862	28.729
C          0.16680        1.44320        0.11000
N         -0.25040        0.07180       -0.15220
C          0.46420       -0.65190       -1.10840
C          0.66760       -2.00270       -1.19110
C          0.27870       -3.14850       -0.32760
O          1.35650       -2.28350       -2.32390
N          1.63200       -1.11330       -3.00400
C          1.10160       -0.15490       -2.28280
H          1.22910        1.54200        0.38410
H         -0.01420        2.06350       -0.77360
H         -0.44250        1.84770        0.92160
H         -0.38730       -0.45490        0.69960
H         -0.63590       -3.64030       -0.68030
H          1.07350       -3.89970       -0.30620
H          0.10000       -2.81460        0.69940
H          1.19210        0.86720       -2.62090
