11
gdb 4413	4.12763	2.10024	1.39197	5.7828	56.11	-0.2653	-0.0577	0.2076	790.9731	0.073619	-430.794203	-430.787629	-430.786685	-430.825104	23.632
N          0.02770        1.31790        0.00750
C         -0.04070       -0.01800        0.00100
N         -1.20470       -0.63170        0.00410
C         -1.10080       -1.97780       -0.00300
N         -0.02230       -2.72010       -0.01300
C          1.18470       -2.09660       -0.01640
O          2.28180       -2.55220       -0.02490
O          1.13570       -0.62020       -0.00850
H          0.91960        1.78110        0.00510
H         -0.82880        1.84410        0.01480
H         -2.05010       -2.51140       -0.00140
