16
gdb 18965	6.56177	1.4079	1.39792	2.2963	64.41	-0.2314	0.0789	0.3102	920.1917	0.129804	-383.625297	-383.618523	-383.617579	-383.656461	25.657
C          0.03460        1.33500       -0.22590
O         -0.05020        0.06530        0.38360
C         -1.30860       -0.53650        0.24130
C         -1.60110       -1.31060       -1.06640
C         -0.72610       -2.52060       -0.59960
O         -1.76620       -3.51590       -0.83340
C         -2.46970       -2.35530       -0.29940
C         -1.35580       -1.98730        0.72890
H          1.03490        1.72560       -0.02570
H         -0.11390        1.28070       -1.31470
H         -0.70890        2.03340        0.18870
H         -2.10770        0.13240        0.59490
H         -1.75060       -0.96590       -2.08880
H          0.30570       -2.77300       -0.83270
H         -3.54970       -2.40690       -0.17060
H         -1.22170       -2.39280        1.73040
