14
gdb 21203	7.00043	1.31462	1.11615	4.1884	60.02	-0.2021	0.0461	0.2482	1007.9591	0.109035	-412.078984	-412.07124	-412.070296	-412.111129	27.542
C         -0.04240        1.43870        0.05120
N          0.00440       -0.01880        0.10940
C         -1.19660       -0.68530        0.04020
N         -2.37110       -0.12760        0.06500
N         -3.24460       -1.21180        0.06650
C         -2.63020       -2.43640        0.03160
O         -3.09630       -3.55490        0.03160
N         -1.27330       -2.05860       -0.00790
H          0.97280        1.82340        0.16660
H         -0.47380        1.81830       -0.88430
H         -0.65620        1.80680        0.87580
H          0.72450       -0.42880       -0.46940
H         -4.23510       -1.05770        0.11140
H         -0.52150       -2.71940        0.08160
