14
gdb 5357	5.256	1.56596	1.2065	3.2146	73.64	-0.2541	-0.062	0.1921	932.1798	0.10962	-345.487298	-345.480999	-345.480055	-345.517825	23.879
O         -0.08640       -0.02270       -0.00180
C         -0.00520        1.18370        0.00720
C          1.26250        1.94620       -0.00070
C          2.49110        1.27440       -0.02010
C          3.67500        1.99780       -0.02740
C          3.63960        3.39440       -0.01540
C          2.41990        4.06820        0.00390
C          1.23250        3.34320        0.01120
H         -0.92000        1.81890        0.02280
H          2.48640        0.19020       -0.02900
H          4.62850        1.48050       -0.04240
H          4.56710        3.95780       -0.02120
H          2.39700        5.15260        0.01310
H          0.27480        3.85620        0.02620
