20
gdb 16957	3.26524	2.05748	1.89658	1.6551	73.13	-0.2347	0.0807	0.3154	838.5941	0.180375	-349.022167	-349.015363	-349.014419	-349.052809	27.904
C         -0.20500        1.55670       -0.01150
C          0.04030        0.04850        0.00200
C          0.76650       -0.51070       -1.27150
C          1.89880       -1.35680       -0.65760
C          1.25550       -1.91700        0.61900
C          0.93830       -0.50070        1.14770
C          2.34270        0.11530        1.05170
O          2.89720       -0.45700       -0.14840
H          0.71860        2.12190       -0.17210
H         -0.89340        1.82630       -0.81950
H         -0.65020        1.89860        0.92970
H         -0.93410       -0.44550        0.09810
H          0.09780       -1.10940       -1.89830
H          1.18880        0.28520       -1.89120
H          2.39040       -2.05740       -1.33380
H          0.36350       -2.52140        0.43450
H          1.96120       -2.47680        1.23820
H          0.49260       -0.42960        2.14170
H          2.34160        1.20780        0.97260
H          2.96720       -0.16060        1.91270
