15
gdb 8846	3.78665	1.3101	1.13184	1.9254	59.93	-0.2529	-0.0459	0.207	1061.5278	0.117193	-436.977001	-436.968309	-436.967365	-437.010934	29.825
C         -0.13900        1.50870       -0.84180
N         -0.00640        0.06950       -0.94270
C          0.71470       -0.66290       -0.07010
O          1.35730       -0.23890        0.87510
C          0.69890       -2.17920       -0.37080
O         -0.14340       -2.54440       -1.42810
C          2.12620       -2.61710       -0.65670
O          2.38690       -3.23730       -1.65940
H          0.44570        1.83470        0.01950
H          0.24090        2.00480       -1.74140
H         -1.18460        1.80070       -0.69610
H         -0.49790       -0.45130       -1.65400
H          0.39330       -2.65920        0.57260
H          0.42950       -3.01700       -2.05730
H          2.88350       -2.32560        0.09060
