15
gdb 1932	3.67706	2.8532	2.21604	2.025	57.49	-0.2261	0.0729	0.2989	662.1094	0.123614	-345.608535	-345.601588	-345.600644	-345.638911	26.24
C         -0.05280        1.50480        0.03750
C          0.03790        0.01700        0.09110
C          1.21160       -0.83890       -0.32960
C          0.61250       -0.99270        1.05460
O          1.31280       -0.80070        2.22810
C         -0.73680       -1.69540        0.94570
O         -1.17380       -0.74190       -0.06140
H          0.91190        1.95270        0.29120
H         -0.33080        1.84050       -0.96780
H         -0.80530        1.87300        0.74150
H          1.08840       -1.60420       -1.09220
H          2.16660       -0.32100       -0.33170
H          2.03290       -1.43990        2.26190
H         -0.76190       -2.73000        0.58250
H         -1.33620       -1.60070        1.85850
