16
gdb 2696	14.29715	0.90043	0.86537	4.6235	62.88	-0.2818	0.0112	0.293	1291.5372	0.135191	-325.780603	-325.772191	-325.771247	-325.814119	27.975
C         -0.03610        1.49550       -0.02840
C          0.02080       -0.03300        0.03370
C          0.75700       -0.53240        1.26730
O          0.76230       -1.95230        1.24460
C          1.42430       -2.50350        2.35160
C          1.38980       -3.96670        2.25950
N          1.37970       -5.12020        2.21570
H          0.96780        1.93290       -0.05840
H         -0.56930        1.82890       -0.92270
H         -0.55460        1.91280        0.84180
H         -0.99110       -0.45290        0.03970
H          0.52140       -0.43290       -0.85500
H          1.79270       -0.15190        1.28280
H          0.26470       -0.17200        2.18670
H          2.47810       -2.18120        2.39990
H          0.95230       -2.20210        3.30190
