18
gdb 12808	3.45803	2.02315	1.53205	1.9938	72.6	-0.2402	0.0075	0.2477	884.6036	0.154574	-347.80652	-347.799174	-347.79823	-347.83784	28.613
C         -0.18080        1.53210        0.07120
C          0.06880        0.04430       -0.00430
O         -0.72410       -0.74600        0.91340
C          0.69630       -0.68540        1.10950
C          1.46730       -1.97310        0.84450
C          2.06110       -2.04660       -0.57670
C          1.14800       -1.47040       -1.62990
C          0.23900       -0.53180       -1.36890
H          0.64360        2.09040       -0.38510
H         -1.09950        1.79400       -0.46590
H         -0.29110        1.85110        1.11070
H          0.98810       -0.11740        1.99350
H          2.26420       -2.08970        1.58590
H          0.76950       -2.80410        0.99150
H          3.02250       -1.51290       -0.61330
H          2.29950       -3.08770       -0.82020
H          1.26460       -1.84160       -2.64520
H         -0.39580       -0.13600       -2.15770
