12
gdb 8988	7.10706	1.00277	0.91843	2.6576	59.17	-0.284	-0.1052	0.1788	1160.6556	0.081639	-414.659136	-414.650986	-414.650042	-414.692881	26.76
N          0.06410        1.09300       -0.20680
C         -0.19620       -0.09990        0.08870
O         -0.46520       -0.98610       -0.90890
C         -0.78940       -2.29160       -0.52660
C         -2.19730       -2.40720        0.04940
O         -2.89930       -1.47520        0.33260
C         -2.63390       -3.80240        0.26650
N         -2.94120       -4.90520        0.42930
H          0.25930        1.63210        0.63400
H         -0.21930       -0.54790        1.09030
H         -0.71830       -2.92180       -1.41950
H         -0.08820       -2.70960        0.21440
