12
gdb 21830	6.07072	1.49421	1.19907	3.3079	58.18	-0.2417	-0.0152	0.2266	902.5937	0.086941	-410.867802	-410.861332	-410.860388	-410.898897	23.057
O         -0.28660        0.05250        0.00190
C         -0.06470        1.24180        0.00830
N          1.18000        1.81060        0.00130
C          2.38030        1.10930       -0.01390
N          3.53580        1.77380       -0.01820
N          4.43270        0.79000       -0.03320
N          3.96110       -0.44400       -0.03910
C          2.63780       -0.27630       -0.02690
H         -0.85800        2.01220        0.02100
H          1.25480        2.81700        0.00810
H          5.42060        0.98220       -0.03980
H          1.94650       -1.09880       -0.02750
