17
gdb 20834	3.30019	1.90376	1.33397	3.342	69.73	-0.249	0.0138	0.2628	945.7373	0.143804	-360.080902	-360.072771	-360.071827	-360.114476	28.238
C         -0.13090        1.51450       -0.00730
C          0.06210       -0.01260       -0.01410
C          0.77750       -0.52040        1.19710
N          2.07750       -0.77400        1.26790
C          2.24380       -1.16820        2.55700
N          1.14420       -1.17960        3.28990
N          0.20390       -0.76130        2.40240
C         -1.16790       -0.60420        2.83680
H          0.83470        2.02190        0.06820
H         -0.62130        1.84330       -0.92820
H         -0.74790        1.83840        0.83690
H         -0.90890       -0.51050       -0.11940
H          0.66420       -0.30380       -0.87850
H          3.19890       -1.46240        2.96670
H         -1.29560        0.32230        3.40540
H         -1.82700       -0.58340        1.96780
H         -1.43530       -1.44870        3.47400
