7
gdb 17	25.77385	22.12109	14.18066	1.7675	24.04	-0.2682	0.1042	0.3724	129.891	0.057289	-153.742562	-153.73941	-153.738466	-153.766642	9.176
C          0.01540        1.41760        0.00960
C          1.26480        0.64920       -0.00660
O         -0.00020       -0.00770        0.00200
H         -0.31760        1.88590        0.93480
H         -0.33530        1.89580       -0.90400
H          1.83250        0.56260       -0.93190
H          1.85010        0.55270        0.90680
