20
gdb 12287	4.15442	1.38827	1.18831	1.8674	71.6	-0.2488	0.07	0.3188	1085.2459	0.175944	-386.121362	-386.112398	-386.111454	-386.154885	32.997
C          0.28100        1.07240       -0.41590
O         -0.38390        0.15870        0.44160
C          0.48140       -0.50000        1.33770
C         -0.23760       -1.38610        2.37180
C          0.81290       -2.50410        2.10030
C          0.34310       -3.94670        2.01990
C          1.19240       -1.77490        0.76930
O          0.51830       -2.26430       -0.36920
H          1.02240        0.56970       -1.05150
H         -0.48080        1.53070       -1.05070
H          0.78680        1.85950        0.16150
H          1.18620        0.20930        1.79190
H         -0.33590       -0.99900        3.38810
H         -1.22860       -1.66590        2.00240
H          1.64690       -2.41140        2.80540
H         -0.40920       -4.05800        1.23470
H          1.17190       -4.62260        1.78320
H         -0.09360       -4.27080        2.97090
H          2.26230       -1.70710        0.54270
H         -0.22000       -1.65860       -0.52680
