14
gdb 20384	4.89358	2.05428	1.48325	3.8789	63.31	-0.2031	-0.0067	0.1964	795.4118	0.110815	-378.697632	-378.691723	-378.690779	-378.727672	22.767
C          0.01530        1.44530        0.04250
C          1.51350        1.89570       -0.07590
C          2.16400        0.56100        0.07410
C          1.28500       -0.45850       -0.05540
N         -0.02750       -0.01250       -0.30800
C          2.10300       -1.61230       -0.01080
N          3.37450       -1.28390        0.14120
O          3.42030        0.11740        0.17510
H         -0.32210        1.60250        1.07540
H         -0.64110        2.01290       -0.62090
H          1.72630        2.33900       -1.05710
H          1.78000        2.63440        0.68480
H         -0.74660       -0.50230        0.21050
H          1.84780       -2.66080       -0.06670
