20
gdb 18388	2.87651	2.25549	1.47199	0.4164	80.65	-0.2231	0.0278	0.2509	916.9812	0.180502	-311.870465	-311.863403	-311.862459	-311.901516	28.613
C          0.36970        1.39620       -0.50340
C          1.38850        0.36020       -0.11140
C          2.39270        0.55510        1.00970
C          1.89750        1.22760        2.29320
C          0.96330        0.36440        3.15380
C         -0.41620        0.09350        2.61070
C         -0.82400       -0.03630        1.34570
C         -0.08060        0.05140        0.06570
H          0.23630        2.25560        0.14400
H          0.20430        1.59990       -1.55610
H          1.83060       -0.16190       -0.95780
H          2.81630       -0.42450        1.27300
H          3.22800        1.14380        0.60670
H          2.77640        1.48100        2.89830
H          1.40590        2.18040        2.06230
H          1.46500       -0.59370        3.36480
H          0.85050        0.84600        4.13320
H         -1.18120       -0.02580        3.37630
H         -1.88430       -0.24290        1.20110
H         -0.48610       -0.62270       -0.68540
