16
gdb 1169	4.00867	1.86804	1.75871	4.8411	60.78	-0.25	0.0323	0.2824	796.8074	0.136974	-321.958604	-321.950266	-321.949322	-321.990496	30.27
C         -0.03410        1.56340       -0.01120
C          0.02410        0.02370        0.03540
N          0.83770       -0.37250        1.19450
C         -1.41610       -0.57980        0.07510
N         -2.08050       -0.18990        1.31850
C          0.67750       -0.47300       -1.18860
N          1.15420       -0.88110       -2.15880
H          0.97530        1.97340       -0.06780
H         -0.61360        1.91360       -0.87010
H         -0.50040        1.93120        0.90720
H          0.24100       -0.24460        2.01110
H          1.04080       -1.36780        1.14430
H         -1.95930       -0.28800       -0.83610
H         -1.32230       -1.67010        0.05890
H         -2.57170        0.69010        1.20810
H         -2.77500       -0.87900        1.58120
