16
gdb 5627	3.17436	1.92857	1.21802	0.9932	67.15	-0.206	0.031	0.2369	972.3897	0.130271	-383.758312	-383.750417	-383.749473	-383.790638	28.555
C          0.02320        1.37280       -0.03350
O          0.01590       -0.04270       -0.02400
C         -1.21230       -0.60910        0.00600
C         -2.45180       -0.03990        0.02830
O         -3.40090       -1.02530        0.05540
C         -2.74110       -2.21060        0.04940
C         -1.39360       -2.03670        0.01990
C         -0.31190       -3.06810        0.00410
H          1.06860        1.68420       -0.05770
H         -0.49630        1.76450       -0.91870
H         -0.45850        1.77630        0.86750
H         -2.81600        0.97160        0.02910
H         -3.36000       -3.09330        0.06880
H          0.31120       -2.97990       -0.89290
H          0.35620       -2.95920        0.86560
H         -0.73180       -4.07720        0.02660
