19
gdb 6852	3.36183	1.81132	1.60748	1.9763	72.	-0.2439	0.0302	0.2741	903.1208	0.166318	-365.088225	-365.080374	-365.07943	-365.119887	30.447
C         -0.00200        1.52210        0.01320
C         -0.01530       -0.01390       -0.01130
C         -1.47060       -0.51020        0.05630
C          0.70190       -0.52680       -1.27880
C          1.09000       -1.98960       -1.11510
O          1.85860       -2.19000        0.07940
C          1.50440       -1.42060        1.13720
N          0.68050       -0.46480        1.20590
H          1.02550        1.89820        0.01720
H         -0.51730        1.93130       -0.86250
H         -0.49820        1.88850        0.91590
H         -2.06050       -0.08690       -0.76390
H         -1.53120       -1.60100       -0.00250
H         -1.92340       -0.20600        1.00380
H          0.07200       -0.40870       -2.16740
H          1.61120        0.06320       -1.44270
H          0.20320       -2.63380       -1.06400
H          1.71770       -2.34270       -1.93680
H          2.06380       -1.73510        2.01730
