16
gdb 10743	2.55869	1.93917	1.57529	3.3436	64.49	-0.2758	0.0256	0.3014	893.0991	0.129444	-379.903489	-379.894993	-379.894048	-379.936208	30.849
C         -0.08570        1.46430       -0.19240
C          0.01130       -0.05260        0.04770
N          0.74520       -0.29800        1.29380
C         -1.35710       -0.62510        0.08670
N         -2.41090       -1.09020        0.18800
C          0.81960       -0.68830       -1.08530
C          0.51400       -1.99440       -1.68080
O          0.19610       -0.76930       -2.35510
H          0.92120        1.88930       -0.18620
H         -0.56070        1.66470       -1.15480
H         -0.67470        1.94460        0.59420
H          0.29060        0.18190        2.06520
H          0.73640       -1.28900        1.51890
H          1.85110       -0.33480       -1.08820
H          1.31820       -2.57520       -2.12870
H         -0.34590       -2.56190       -1.33200
