16
gdb 15922	3.4749	1.91772	1.54313	4.9084	68.87	-0.2423	0.0104	0.2527	855.2482	0.132418	-342.759053	-342.752082	-342.751138	-342.790339	26.484
N         -0.02500       -1.13680       -0.45480
C          0.00230       -0.00920       -0.19960
C          0.04640        1.41680        0.08240
C         -0.52690        2.35760       -1.03430
C          0.82480        3.13040       -1.08120
C          1.36270        2.28800        0.09700
C          0.90090        2.77080        1.49490
N         -0.21030        1.78430        1.48210
H         -0.78610        1.84340       -1.96140
H         -1.39660        2.92870       -0.69900
H          1.37050        2.95340       -2.01040
H          0.78060        4.20870       -0.90800
H          2.35720        1.85290        0.02110
H          1.60190        2.59600        2.31730
H          0.59990        3.82630        1.51480
H         -1.14170        2.13560        1.67880
