16
gdb 19666	4.52021	2.11802	1.98279	2.001	62.9	-0.2409	0.0779	0.3188	727.133	0.133085	-383.694114	-383.688435	-383.68749	-383.723569	24.008
O          0.18140        1.42690       -0.07260
C          0.02670        0.04180       -0.03610
C          0.12780       -0.67610        1.33160
O         -0.83570        0.07720        2.09900
C         -2.00880       -0.32840        1.35810
C         -2.05440       -1.84580        1.62990
C         -0.78520       -1.83400        0.76290
C         -1.36510       -0.61890       -0.06070
H         -0.20480        1.74870        0.75340
H          0.67990       -0.40330       -0.79170
H          1.05000       -0.81730        1.89210
H         -2.83670        0.35480        1.53680
H         -2.00230       -2.16540        2.67370
H         -2.87860       -2.33970        1.10920
H         -0.31460       -2.71100        0.32490
H         -2.00810       -0.70930       -0.93320
