18
gdb 15363	4.51286	1.01843	0.91886	3.8699	69.74	-0.2739	0.0031	0.277	1288.4018	0.152019	-384.950118	-384.941266	-384.940322	-384.98455	30.925
C          0.07450        1.36800       -0.44440
C         -0.08210        0.08010        0.37110
C         -1.45680       -0.54010        0.21670
C         -1.76760       -1.44480       -0.95970
C         -1.68360       -2.00450        0.43700
O         -0.55380       -2.77420        0.80630
C         -0.51070       -4.04060        0.33870
O          0.37350       -4.79470        0.61130
H          1.07120        1.79870       -0.30990
H         -0.06980        1.17890       -1.51330
H         -0.65860        2.12320       -0.14010
H          0.68010       -0.64730        0.07510
H          0.09680        0.28980        1.43290
H         -2.27450        0.09500        0.54950
H         -2.73810       -1.39430       -1.44060
H         -0.94280       -1.67810       -1.62570
H         -2.59350       -2.32400        0.93710
H         -1.37180       -4.28530       -0.31120
