14
gdb 3625	5.45662	3.76663	3.52129	1.7756	58.8	-0.221	0.0865	0.3075	489.8385	0.116314	-287.344	-287.339568	-287.338624	-287.371773	18.869
C         -0.05570        1.58750        0.13270
C          1.47340        1.49680       -0.01210
C          2.02690        0.60330        1.10750
C          0.93760       -0.49070        1.10770
C          2.10690       -0.56580        0.17340
N          1.31940        0.21800       -0.86860
C          0.04140        0.05870       -0.01170
H         -0.47900        2.00920        1.04740
H         -0.51190        2.04150       -0.75120
H          2.08290        2.31110       -0.40390
H          2.61950        0.84420        1.98000
H          0.69950       -1.08420        1.98040
H          2.86070       -1.31630       -0.02700
H         -0.77030       -0.55440       -0.40310
