13
gdb 1230	8.48513	1.20323	1.10987	4.2342	52.44	-0.2504	-0.0282	0.2221	990.0316	0.100843	-377.817369	-377.809642	-377.808698	-377.85006	26.379
N          0.03190        1.34750        0.05790
C          0.02740       -0.03790        0.03950
O          0.98340       -0.70870        0.37750
N         -1.15720       -0.58580       -0.42310
C         -1.24850       -2.00680       -0.67870
C         -2.39780       -2.64930        0.07960
O         -3.04790       -3.57360       -0.33070
H          0.80160        1.72740        0.58750
H         -0.84540        1.82360        0.20400
H         -1.78420        0.01720       -0.93150
H         -1.34000       -2.24710       -1.74390
H         -0.31050       -2.44360       -0.31140
H         -2.58770       -2.18550        1.07510
