18
gdb 13590	4.21834	1.20181	1.11356	3.339	69.98	-0.2632	-0.0243	0.2389	1129.6363	0.152353	-384.950577	-384.941941	-384.940996	-384.983973	31.504
C         -0.23430        1.52330        0.06880
C          0.00830        0.03140        0.08530
C          1.33840       -0.55760       -0.23340
C          0.81990       -0.66450        1.19430
C          1.48350        0.12020        2.25640
O          2.12070        1.14140        2.05960
C          1.35550       -0.39280        3.68630
O          2.01410        0.44330        4.58670
H          0.63820        2.07300        0.42530
H         -0.45630        1.85200       -0.95230
H         -1.08960        1.79210        0.69790
H         -0.84850       -0.56280       -0.22230
H          1.39630       -1.47400       -0.80970
H          2.16720        0.13000       -0.36510
H          0.43730       -1.62770        1.51670
H          0.28160       -0.47940        3.92480
H          1.75930       -1.41970        3.71720
H          2.39560        1.14580        4.03410
