11
gdb 1384	5.42466	1.43284	1.14152	3.8542	65.61	-0.266	-0.0777	0.1883	974.7892	0.075189	-306.067385	-306.059513	-306.058569	-306.101713	25.629
C          0.02660        1.45530        0.00940
C          0.01680        0.00390        0.00240
C          0.00060       -1.20300       -0.00350
C         -0.03360       -2.64490       -0.01030
O         -1.06560       -3.28790       -0.00200
C          1.27110       -3.28090       -0.02790
C          2.34820       -3.81790       -0.04260
H          1.04790        1.84920        0.00660
H         -0.49410        1.84910       -0.87020
H         -0.48610        1.84070        0.89740
H          3.29580       -4.29910       -0.05550
