15
gdb 15333	3.41236	1.43371	1.12341	2.4044	70.77	-0.2565	-0.0079	0.2485	1059.3181	0.118146	-358.82137	-358.813287	-358.812343	-358.854283	28.273
C         -0.24310        1.04810        0.54640
N         -0.10350       -0.34520        0.17300
C         -1.11680       -0.93440       -0.29440
N         -1.05340       -2.25050       -0.78320
C         -0.20100       -3.21700       -0.13800
C         -1.70040       -3.35340       -0.06120
C         -2.36490       -3.10610        1.19590
N         -2.92760       -2.90830        2.18670
H          0.45600        1.65420       -0.04080
H         -1.25860        1.44880        0.40450
H          0.03660        1.16900        1.59850
H         -2.10630       -0.47880       -0.42590
H          0.34290       -3.88920       -0.79420
H          0.32040       -2.89430        0.75810
H         -2.20410       -4.07890       -0.69340
