16
gdb 11439	3.52987	1.60097	1.23594	3.751	60.34	-0.2716	0.0065	0.2781	968.9881	0.131385	-420.923779	-420.916268	-420.915324	-420.956091	27.472
O          0.16900        1.20410        0.41410
C          0.00860       -0.17290        0.16540
C         -1.43000       -0.51820       -0.21120
C         -1.70990       -2.02880       -0.34350
C         -2.27090       -2.40300        1.03280
C         -2.77080       -1.08350        1.61040
O         -3.46190       -0.90210        2.56800
O         -2.29210       -0.05200        0.85390
H         -0.50480        1.44950        1.05950
H          0.67130       -0.42860       -0.66880
H          0.31450       -0.78510        1.03180
H         -1.71340        0.04840       -1.10200
H         -2.45180       -2.20740       -1.12560
H         -0.80750       -2.58450       -0.60960
H         -3.08360       -3.13030        1.01190
H         -1.50420       -2.79450        1.70960
