15
gdb 7572	3.44454	1.81263	1.43595	3.8361	57.11	-0.2502	0.0206	0.2708	870.6945	0.117704	-436.94122	-436.932954	-436.93201	-436.974716	29.555
N         -0.01500        1.33250        0.41840
C          0.09940        0.03440        0.05200
O          1.15400       -0.52390       -0.18940
C         -1.21930       -0.73180       -0.04870
O         -2.28920        0.12970        0.27750
C         -1.38280       -1.57300       -1.34290
O         -1.51070       -2.79510       -0.59170
C         -1.21690       -2.11990        0.64600
H          0.82020        1.88730        0.50120
H         -0.91880        1.73150        0.60340
H         -3.11540       -0.35970        0.21190
H         -2.28380       -1.33630       -1.92340
H         -0.50240       -1.57660       -1.99290
H         -0.24770       -2.41590        1.05930
H         -2.00680       -2.24940        1.39710
