11
gdb 756	9.26884	3.6096	2.61073	3.385	47.71	-0.206	0.038	0.244	473.2325	0.087866	-281.48553	-281.480242	-281.479298	-281.513921	19.271
N          0.09450        1.40130        0.15340
C         -0.03890        0.01430        0.03910
C         -1.14330       -0.81710       -0.00530
C         -0.59910       -2.12140       -0.03420
N          0.72650       -2.12040       -0.01620
N          1.04630       -0.80020        0.03480
H          0.72550        1.80120       -0.53190
H         -0.80070        1.86650        0.08460
H         -2.17920       -0.52020       -0.02860
H         -1.13020       -3.06160       -0.07790
H          2.01130       -0.53070        0.12020
