12
gdb 5720	5.2185	2.13076	1.53249	1.1211	55.69	-0.2199	0.0224	0.2423	743.4522	0.085962	-418.466457	-418.460767	-418.459822	-418.496387	21.549
C          0.02280        1.40520       -0.10750
O          1.28600        1.92010        0.35190
C          1.98450        0.80640        0.71690
C          3.21080        0.40070        1.11300
O          3.14090       -0.95240        1.36250
C          1.85720       -1.38760        1.11600
C          1.13310       -0.31850        0.71880
O         -0.12900        0.05070        0.35510
H         -0.78360        2.01630        0.30430
H          0.00870        1.41410       -1.20630
H          4.16550        0.86770        1.27160
H          1.66720       -2.43290        1.27720
