14
gdb 2871	7.19321	1.80896	1.49248	4.536	65.88	-0.2596	-0.039	0.2206	790.5964	0.11553	-287.478272	-287.471971	-287.471027	-287.508562	22.929
N          0.06220       -1.12260       -0.29690
C          0.00210        0.02680       -0.16300
C         -0.02730        1.43790        0.00400
C         -1.12540        2.20420       -0.04580
C         -0.81220        3.65160        0.22190
C          0.73490        3.70780        0.12670
C          1.21970        2.24860        0.31920
H         -2.12760        1.83100       -0.21980
H         -1.30640        4.32680       -0.48480
H         -1.17690        3.93450        1.21970
H          1.02350        4.05730       -0.86890
H          1.17710        4.39350        0.85240
H          1.54490        2.04990        1.34840
H          2.06120        1.99040       -0.33010
