16
gdb 12649	3.30981	1.98846	1.29823	5.5077	67.67	-0.2377	-0.0517	0.186	923.2727	0.131472	-379.954631	-379.94692	-379.945976	-379.986765	28.407
C         -0.27480        1.53630        0.01390
C          0.12060        0.06360       -0.01540
C          0.96080       -0.39910       -1.22090
N          1.78280       -1.47450       -0.66830
C          1.96240       -1.40970        0.69620
N          2.74470       -2.03990        1.47940
C          0.96140       -0.37050        1.18890
O          0.86240        0.04030        2.31220
H          0.60580        2.18120       -0.07150
H         -0.95840        1.78220       -0.80390
H         -0.76580        1.76780        0.96220
H         -0.78440       -0.55940        0.02940
H          0.34670       -0.76640       -2.04860
H          1.57440        0.43130       -1.60090
H          2.45610       -1.95040       -1.24780
H          3.35260       -2.68410        0.96740
