20
gdb 7182	5.73168	0.75952	0.70643	3.3146	72.88	-0.2427	-0.0199	0.2228	1608.3899	0.173894	-386.154951	-386.144903	-386.143959	-386.190776	34.838
C          0.01450        1.60080        0.04190
C          0.07360        0.07130        0.04110
C          0.67630       -0.50310       -1.24540
C          0.68340       -2.03490       -1.28640
O         -0.62740       -2.58070       -1.14790
C          1.36870       -2.57610       -2.55610
C          1.49030       -4.08570       -2.55670
O          2.48650       -4.68580       -2.87270
H          1.01320        2.03880       -0.06570
H         -0.59940        1.97520       -0.78510
H         -0.41630        1.98080        0.97320
H          0.66590       -0.27490        0.89820
H         -0.92970       -0.34540        0.17940
H          0.11660       -0.13150       -2.11840
H          1.70490       -0.14070       -1.37110
H          1.22320       -2.40840       -0.40640
H         -1.17480       -2.21060       -1.85040
H          0.75870       -2.28810       -3.42690
H          2.36480       -2.14530       -2.69460
H          0.57090       -4.61920       -2.23410
