20
gdb 14018	4.98574	1.16842	1.09353	1.6303	75.81	-0.2203	0.0826	0.3029	1176.1384	0.176333	-348.974515	-348.966017	-348.965073	-349.007864	31.37
C         -0.01430        1.54340       -0.47770
C          0.00590        0.16110        0.18530
C         -1.36330       -0.48270        0.25350
C         -1.93730       -1.23390       -0.94680
C         -1.53450       -1.96530        0.29310
C         -0.51140       -3.07980        0.49330
C         -1.60630       -3.70140        1.38690
O         -2.49980       -2.59090        1.14400
H          0.98890        1.97900       -0.51990
H         -0.40030        1.48220       -1.50060
H         -0.65670        2.23620        0.07660
H          0.68870       -0.49770       -0.36700
H          0.42000        0.24650        1.19890
H         -2.10070        0.06390        0.83830
H         -2.99960       -1.13930       -1.14500
H         -1.31580       -1.34150       -1.83200
H         -0.25470       -3.65030       -0.40130
H          0.40440       -2.78750        1.01140
H         -2.02920       -4.64750        1.03010
H         -1.35780       -3.79680        2.45010
