20
gdb 8003	3.05996	1.74507	1.28148	1.5606	78.16	-0.2253	0.0243	0.2496	1039.7917	0.175717	-349.028927	-349.020107	-349.019163	-349.062025	32.787
C          0.16040        1.53490       -0.14230
C         -0.01170        0.02840        0.05250
O          0.56150       -0.67140       -1.05780
C          1.44920       -1.69630       -0.60930
C          2.78390       -1.57500       -1.34520
C          1.52290       -1.51920        0.89320
C          2.39410       -2.37250        1.75750
C          0.69090       -0.54560        1.25230
H          1.22170        1.79950       -0.16050
H         -0.29270        1.84570       -1.08810
H         -0.32600        2.08690        0.66910
H         -1.09290       -0.19440        0.09370
H          1.01100       -2.68310       -0.84850
H          3.27900       -0.63340       -1.08910
H          3.44960       -2.40610       -1.09000
H          2.61400       -1.59410       -2.42520
H          3.45430       -2.25130        1.50400
H          2.26980       -2.12860        2.81560
H          2.16110       -3.43670        1.62390
H          0.50900       -0.19670        2.26210
