13
gdb 1706	4.48113	2.21534	1.90956	2.2355	54.18	-0.2692	0.0157	0.2849	688.6646	0.102327	-340.611734	-340.60485	-340.603906	-340.642831	24.183
N         -0.01100        1.50400       -0.03370
C         -0.00430        0.04730       -0.00710
C          0.12900       -0.52640        1.43170
O         -1.24450       -0.94510        1.44460
C         -1.43380       -0.55840        0.07480
C          0.88030       -0.55680       -1.01170
N          1.58830       -0.99060       -1.81700
H          0.93020        1.85950        0.11560
H         -0.29900        1.83440       -0.95150
H          0.82260       -1.36850        1.53220
H          0.34350        0.23790        2.18580
H         -2.22810        0.18530       -0.04700
H         -1.61080       -1.41830       -0.58070
