16
gdb 8397	4.18994	1.66157	1.44965	3.4014	64.98	-0.2239	0.0174	0.2413	884.6829	0.131594	-379.869353	-379.8618	-379.860856	-379.903593	27.55
N          0.09080        1.16930       -0.45650
C         -0.05710        0.08310        0.35420
O          0.76800       -0.24710        1.18470
C         -1.33300       -0.70130        0.15510
C         -2.54130       -0.53030       -0.80010
N         -2.93630       -1.78960       -0.00910
C         -1.46320       -2.20310       -0.19290
C         -2.41110       -1.01950        1.21810
H          0.92290        1.72980       -0.36750
H         -0.60100        1.42770       -1.13720
H         -3.21720        0.31400       -0.63480
H         -2.38940       -0.71960       -1.86690
H         -1.22020       -2.51380       -1.21260
H         -1.11250       -2.92690        0.54510
H         -2.12580       -1.66180        2.05330
H         -3.06820       -0.20640        1.53810
