16
gdb 12630	3.35222	2.05106	1.38303	2.442	66.62	-0.2437	-0.0143	0.2293	899.4727	0.131084	-379.97716	-379.969227	-379.968282	-380.009613	28.096
C         -0.10150        1.54100        0.03420
C          0.05690        0.02090       -0.03420
N          0.88890       -0.41110       -1.16850
C          1.83690       -1.09910       -0.66100
N          1.82850       -1.24770        0.72360
C          2.78990       -1.95050        1.54550
C          0.72770       -0.55430        1.22130
O          0.42100       -0.45090        2.38590
H          0.87580        2.02860        0.09440
H         -0.61300        1.90640       -0.85900
H         -0.68050        1.81130        0.92110
H         -0.93480       -0.43920       -0.13370
H          2.63170       -1.56450       -1.23670
H          2.81600       -3.01810        1.30420
H          3.79570       -1.53420        1.42740
H          2.47170       -1.82650        2.58270
