14
gdb 2905	6.85262	2.05605	1.61319	4.0357	59.98	-0.2363	0.0058	0.2421	732.2384	0.114892	-324.608961	-324.602635	-324.601691	-324.639632	22.521
O          0.00220       -0.00830        0.00060
C          0.04820        1.20610        0.00840
N          1.19080        1.93050       -0.00180
C          2.51090        1.29550       -0.02160
C          3.42950        2.48600       -0.02060
C          2.75230        3.63010       -0.00360
C          1.26530        3.39320        0.00960
H         -0.85670        1.84760        0.02470
H          2.64810        0.64200        0.85080
H          2.62980        0.65790       -0.90820
H          4.50690        2.38150       -0.03280
H          3.17280        4.62740        0.00060
H          0.76820        3.83670       -0.86580
H          0.78610        3.82180        0.90240
