19
gdb 14311	3.06129	1.92502	1.76536	2.173	70.52	-0.2144	0.07	0.2844	862.5686	0.166544	-365.036985	-365.029247	-365.028303	-365.068783	29.903
C          0.06290        1.68660        0.05840
N          0.12420        0.23050        0.05620
C          1.32350       -0.50870       -0.31030
C          2.68410        0.17700       -0.32600
C          2.99140        0.64090        1.12090
O          3.14400        2.05930        1.11440
C          1.81570        0.13830        2.01260
C          0.80010       -0.53210        1.09480
H          0.96760        2.20130        0.40270
H         -0.15740        2.02250       -0.96050
H         -0.77530        1.99390        0.69310
H          1.16270       -1.32510       -1.01100
H          3.43970       -0.53290       -0.67650
H          2.72280        1.04080       -0.99750
H          3.93210        0.19020        1.46610
H          3.31880        2.34320        2.01730
H          2.16890       -0.59260        2.74800
H          1.38470        0.97420        2.57710
H          0.22960       -1.36600        1.49840
