16
gdb 8865	2.30058	1.76796	1.43343	2.0349	67.77	-0.2504	-0.0633	0.187	978.8033	0.126376	-383.706337	-383.69693	-383.695986	-383.740973	32.315
C          0.26130        1.21980       -1.74320
O          0.12210        0.30050       -0.67710
C          1.14280       -0.66880       -0.62250
C          1.05030       -1.36680        0.73490
C          1.02730       -1.72020       -1.73960
O          2.00310       -2.24980       -2.22370
C         -0.32190       -2.07870       -2.14590
C         -1.42870       -2.39710       -2.49650
H          1.22010        1.75650       -1.68690
H          0.19160        0.73150       -2.72560
H         -0.55530        1.93910       -1.65220
H          2.13540       -0.20790       -0.74180
H          1.15410       -0.62550        1.53100
H          0.07910       -1.85800        0.84340
H          1.84150       -2.11410        0.83420
H         -2.40520       -2.68060       -2.80670
