16
gdb 17716	4.77013	2.58406	2.11645	0.1029	72.44	-0.2168	0.0051	0.2218	679.6361	0.132659	-309.356927	-309.351724	-309.35078	-309.385681	23.002
C         -0.07840        1.60000       -0.00350
C          1.45810        1.28830       -0.02740
C          1.29650        0.14380        1.01570
C          1.76640       -1.06420        0.14930
C          0.59820       -2.07410        0.26640
C         -0.53180       -1.34920        0.24470
C          0.01500        0.06130        0.11560
C          1.23700       -0.00530       -0.86510
H         -0.45590        2.14340        0.86870
H         -0.51260        2.00130       -0.92480
H          2.27730        2.00220       -0.10990
H          1.28560        0.23440        2.10490
H          2.78760       -1.44890        0.14750
H          0.69970       -3.14780        0.34840
H         -1.55950       -1.67630        0.30310
H          1.15710       -0.08720       -1.95210
