15
gdb 8378	5.13741	1.32739	1.21755	4.8409	63.15	-0.2399	0.0361	0.276	980.3309	0.117732	-399.792699	-399.78506	-399.784116	-399.824735	28.567
O         -0.05760        1.39300       -0.09440
C         -0.00810        0.00100       -0.01590
C         -0.43270       -0.71010        1.26590
C         -1.31690       -0.70370        0.05220
C         -2.71390       -0.09480       -0.12880
C         -3.00750       -1.35640       -0.98600
O         -3.93030       -1.78020       -1.62510
N         -1.74040       -1.84410       -0.73610
H          0.67000        1.75100        0.42590
H          0.78680       -0.47280       -0.59490
H          0.08840       -1.62350        1.53570
H         -0.73860       -0.09040        2.10310
H         -3.31860       -0.01430        0.77590
H         -2.73870        0.84400       -0.68340
H         -1.24100       -2.63790       -1.10910
