17
gdb 7257	4.38586	1.16881	0.99583	1.0442	67.9	-0.2736	-0.0224	0.2512	1192.542	0.13996	-401.042912	-401.033693	-401.032748	-401.077627	31.636
C          0.26230        1.61000        0.78960
C         -0.17090        0.39960       -0.03940
C          0.54950       -0.89500        0.39320
C         -1.67050        0.19930        0.04470
O         -2.42070        0.71840        0.82490
O         -2.07750       -0.70010       -0.91840
C         -3.40790       -1.02950       -0.97710
N         -3.77160       -1.85690       -1.85200
H          1.34200        1.75910        0.69910
H         -0.24120        2.52190        0.45840
H          0.02010        1.46370        1.84570
H          0.05740        0.56810       -1.09900
H          0.33830       -1.12430        1.44310
H          0.23870       -1.74580       -0.21690
H          1.63080       -0.76980        0.28720
H         -4.00710       -0.51120       -0.22820
H         -4.77720       -2.00800       -1.78460
