15
gdb 19379	4.2039	1.74035	1.5065	2.7553	60.57	-0.2191	0.0492	0.2683	850.9864	0.11765	-399.680111	-399.672992	-399.672048	-399.711553	27.
O          0.09510        1.40800        0.14070
C         -0.00950        0.02100       -0.15180
C         -1.45010       -0.35380       -0.04940
O         -1.89160       -1.57020       -0.64610
C         -2.56410       -0.35750       -0.99940
C         -3.55950        0.02920        0.15290
N         -3.47910       -1.01890        1.19940
C         -2.43900        0.03340        1.11650
H          1.02700        1.62160        0.24210
H          0.34800       -0.22220       -1.16340
H          0.57390       -0.58270        0.56210
H         -2.62530       -0.09250       -2.04800
H         -4.40420        0.69830        0.06240
H         -4.11930       -0.73150        1.94100
H         -2.21960        0.71370        1.92740
