15
gdb 7902	3.05318	2.00196	1.4434	3.6292	61.4	-0.2128	-0.0938	0.1191	872.2865	0.117904	-399.808083	-399.80054	-399.799596	-399.840263	27.384
C         -0.32120        1.42750        0.30590
N          0.10820        0.07300       -0.04530
C         -1.03270       -0.81350       -0.34410
C         -1.44740       -1.43500        0.98540
O         -2.48360       -1.95390        1.29700
C         -0.20010       -1.28060        1.91160
O         -0.12650       -1.66300        3.04670
C          0.84700       -0.57980        1.05230
H          0.56040        2.04290        0.50610
H         -0.85200        1.86720       -0.54310
H         -0.98410        1.48540        1.18870
H         -1.85450       -0.27710       -0.82160
H         -0.71730       -1.61590       -1.02790
H          1.53610       -1.33520        0.64580
H          1.44070        0.13290        1.62750
