12
gdb 4611	5.80834	1.62812	1.27336	4.3771	62.13	-0.2162	-0.0803	0.1359	867.2704	0.084855	-414.696169	-414.689575	-414.68863	-414.726919	24.678
N          0.02790        1.41760        0.15730
C         -0.03090        0.02900        0.04400
C         -1.17570       -0.69480       -4.09650
O         -1.16140       -2.05150       -0.03460
C          0.02540       -2.75720       -0.02910
O          0.01150       -3.95920       -0.05550
C          1.21470       -1.89810        0.00370
N          1.19300       -0.60950        0.03820
H          0.90780        1.78260       -0.18100
H         -0.76010        1.91390       -0.23340
H         -2.17980       -0.29150       -0.00670
H          2.17220       -2.41280       -0.00520
