11
gdb 2828	4.56491	2.0934	1.65777	3.2825	49.	-0.2667	-0.0725	0.1942	713.1821	0.075524	-380.371074	-380.364309	-380.363364	-380.402434	22.455
O         -0.43930        0.42940        0.49770
C          0.25000        0.81940       -0.40990
C          1.37480        1.78930       -0.18790
O          2.41370        1.78330       -1.15600
C          1.61270        2.94700       -1.10770
C          0.71500        3.23120       -2.28170
O          0.37240        2.41070       -3.09150
H          0.12340        0.49300       -1.45850
H          1.68000        1.90780        0.85150
H          2.08570        3.82570       -0.66620
H          0.38430        4.29090       -2.34220
