14
gdb 594	12.94847	1.75438	1.68147	2.483	50.75	-0.2579	0.0832	0.3412	738.5038	0.118336	-307.526911	-307.520151	-307.519207	-307.557716	22.684
C         -0.14300        1.34960        0.08150
O         -0.07690       -0.05600        0.06810
C          0.79920       -0.57180        1.04340
C          0.79650       -2.07210        0.94460
C          1.15730       -2.91100        2.09250
O         -0.20320       -2.77090        1.68740
H          0.84090        1.80750       -0.11050
H         -0.83350        1.65160       -0.70940
H         -0.51620        1.73230        1.04460
H          1.82420       -0.19140        0.88200
H          0.48750       -0.27320        2.05790
H          0.96230       -2.46080       -0.06050
H          1.60390       -3.89000        1.92490
H          1.41250       -2.44420        3.04360
