16
gdb 568	8.32944	2.22945	1.91437	1.2955	56.81	-0.2613	0.0775	0.3388	673.3675	0.143443	-271.616401	-271.609777	-271.608832	-271.646705	23.883
O         -0.08300        1.42870       -0.17750
C          0.00890        0.03500        0.08450
C         -1.38510       -0.54930        0.01180
C         -2.09700       -0.62100       -1.36780
C         -2.63730       -2.02240       -0.97310
C         -1.54610       -2.09050        0.13070
H          0.80460        1.79810       -0.16000
H          0.65540       -0.46720       -0.65550
H          0.44300       -0.15770        1.08040
H         -2.02150       -0.03640        0.74100
H         -2.82090        0.16050       -1.60700
H         -1.36970       -0.68070       -2.18420
H         -3.64190       -1.96450       -0.54400
H         -2.63420       -2.80370       -1.73690
H         -0.64980       -2.61280       -0.22150
H         -1.82410       -2.50120        1.10450
