16
gdb 19731	4.12298	2.60134	2.31954	1.397	67.7	-0.2391	0.0072	0.2463	667.9221	0.134017	-346.579887	-346.574718	-346.573774	-346.608705	22.719
C         -0.04050        1.57090        0.06910
C          1.48860        1.37950        0.01060
O          1.76810        0.77650        1.26180
C          0.90490       -0.42190        1.16700
C          1.80310       -1.47300        0.55700
C          2.03430       -1.09460       -0.70890
C          1.21580        0.12140       -0.97610
C         -0.00860        0.02820       -0.00610
H         -0.43820        2.05280        0.96460
H         -0.46180        2.01150       -0.83770
H          2.21080        2.16270       -0.21210
H          0.45730       -0.61740        2.14030
H          2.29290       -2.26290        1.11140
H          2.74780       -1.52910       -1.39820
H          1.01090        0.41320       -2.00470
H         -0.87060       -0.59780       -0.23470
