15
gdb 10794	4.67508	1.55107	1.22225	1.1314	61.56	-0.2492	-0.0319	0.2173	931.8585	0.120163	-399.863324	-399.856147	-399.855203	-399.895338	26.41
O         -0.02630        0.00150       -0.48510
C         -0.05350        1.11960       -0.03520
C         -1.32200        1.91790        0.18700
C         -1.22850        2.73990        1.48190
C         -0.02610        3.67640        1.47920
O         -0.03320        4.77730        1.99210
N          1.06780        3.18690        0.81140
C          1.25050        1.81430        0.37700
H         -1.43740        2.59940       -0.66740
H         -2.17390        1.23460        0.17860
H         -2.11780        3.35200        1.63900
H         -1.14420        2.07130        2.34870
H          1.88020        3.78590        0.85210
H          1.71600        1.18370        1.15020
H          1.92130        1.78880       -0.48800
