18
gdb 19436	3.84759	1.92647	1.59059	1.9854	70.76	-0.2516	0.081	0.3326	857.1083	0.155741	-347.785513	-347.778874	-347.77793	-347.816066	26.943
C          0.08500        1.61250        0.32590
C          1.24320        0.72980       -0.05210
C          2.12540        0.19710        1.07500
C          1.13910       -0.35720        2.12800
C         -0.10740       -0.73760        1.32740
C         -0.69790       -2.08180        1.34920
O         -1.31310       -0.99580        2.05140
C         -0.14170        0.13340        0.10410
H          0.01890        2.01110        1.33290
H         -0.29860        2.28020       -0.43740
H          1.68400        0.85560       -1.03470
H          2.75570       -0.61030        0.68510
H          2.79530        0.95750        1.49010
H          1.54540       -1.19800        2.69450
H          0.86460        0.41370        2.85590
H         -1.24870       -2.44970        0.48320
H         -0.25770       -2.85670        1.97700
H         -0.73480       -0.18610       -0.74480
