20
gdb 6708	6.15373	0.71982	0.6711	1.9016	77.88	-0.2565	0.0578	0.3143	1670.8473	0.17395	-348.978071	-348.968018	-348.967074	-349.013421	36.041
C          0.00190        1.57850        0.06640
C          0.00760        0.04990        0.03410
O          0.74980       -0.48520        1.12910
C         -1.40880       -0.53840       -0.02730
C         -1.42400       -2.06530       -0.13240
C         -2.85290       -2.64400       -0.11890
C         -2.88260       -4.09730       -0.23130
C         -2.88040       -5.29560       -0.32670
H          1.02440        1.96030        0.12880
H         -0.47160        1.99430       -0.82880
H         -0.55490        1.94650        0.93790
H          0.56290       -0.28470       -0.85170
H          0.34410       -0.16030        1.94100
H         -1.95970       -0.22060        0.87170
H         -1.94030       -0.09700       -0.88110
H         -0.92190       -2.37900       -1.05530
H         -0.84680       -2.49130        0.69300
H         -3.36140       -2.34000        0.80600
H         -3.43550       -2.20430       -0.93970
H         -2.88850       -6.35390       -0.41010
