13
gdb 9991	2.55934	1.61244	1.10203	3.3089	67.39	-0.2608	0.011	0.2718	1041.0245	0.092482	-361.40434	-361.395776	-361.394832	-361.438124	29.975
O         -0.04100        0.12570        0.74540
C         -0.01950        1.21680        0.21940
N          1.09190        1.81300       -0.29490
C          2.40150        1.16220       -0.25360
C          2.91840        0.90630       -1.60410
C          3.33240        0.70410       -2.71250
C          3.36070        1.93270        0.54810
C          4.13730        2.57160        1.20360
H         -0.91680        1.85340        0.10050
H          1.02470        2.72580       -0.71670
H          2.20560        0.20270        0.24430
H          3.70290        0.51600       -3.69010
H          4.82880        3.12800        1.78720
