16
gdb 11768	4.68905	1.7187	1.56475	1.7753	70.68	-0.2483	0.0215	0.2698	850.505	0.131156	-346.550211	-346.543529	-346.542585	-346.580726	26.892
C          0.00350       -1.17570       -0.05720
C         -0.02130        0.02550       -0.02570
C         -0.02840        1.46240        0.04280
C         -0.88570        2.26940        1.05690
C         -0.74080        3.28340       -0.09450
C          0.75310        3.66670       -0.06860
C          1.32800        2.22080        0.04230
O         -0.75150        2.16130       -1.03380
H          0.02080       -2.23710       -0.09110
H         -1.89540        1.86710        1.13080
H         -0.46250        2.49770        2.03830
H         -1.48400        4.04860       -0.31330
H          1.05090        4.16670       -0.99210
H          1.01450        4.30680        0.77830
H          1.90530        2.04010        0.95190
H          1.92850        1.93050       -0.82080
