20
gdb 10724	2.42009	1.81046	1.34152	1.5201	70.43	-0.2591	0.0669	0.326	1015.934	0.175484	-386.121876	-386.112578	-386.111634	-386.155698	34.806
C          1.47550       -0.88300       -1.14490
C          0.35220       -0.39300       -0.22940
O         -0.90290       -0.93380       -0.63810
C          0.63180       -0.65120        1.25730
C          1.86250        0.04240        1.81050
O          1.83230        1.45100        1.62040
C         -0.55160       -0.76750        2.19150
C          0.27270       -1.98720        1.85650
H          1.66050       -1.95490       -0.99850
H          1.19720       -0.71780       -2.18950
H          2.41160       -0.35140       -0.95540
H          0.24430        0.68940       -0.35730
H         -0.77240       -1.86810       -0.83080
H          1.97290       -0.21450        2.87620
H          2.77160       -0.29830        1.30420
H          1.02250        1.77610        2.02900
H         -0.46280       -0.35200        3.19080
H         -1.53810       -0.70330        1.74950
H         -0.18420       -2.73500        1.21710
H          0.92440       -2.40050        2.61940
