14
gdb 15511	3.18971	1.93412	1.30997	3.5785	57.81	-0.2674	-0.0386	0.2287	887.2071	0.107409	-419.73141	-419.724251	-419.723307	-419.763645	25.07
O         -0.36380        0.46510       -0.59830
C          0.39150        0.81890        0.26770
C          1.36670        1.97710        0.11680
C          1.22990        2.80050       -1.16160
C          1.47900        4.23650       -0.66980
O          1.16790        4.24430        0.73730
C          1.15600        2.99390        1.25070
O          0.98870        2.75940        2.41210
H          0.42650        0.32700        1.26020
H          2.37450        1.56330        0.26140
H          1.93000        2.50860       -1.94560
H          0.21800        2.68140       -1.55660
H          2.52450        4.54150       -0.78780
H          0.84130        4.98090       -1.14990
