13
gdb 9451	2.92863	1.80565	1.70721	3.9262	59.69	-0.2751	-0.0183	0.2567	828.1418	0.095886	-394.771609	-394.764052	-394.763108	-394.803559	26.969
N          0.07770        1.49390        0.10920
C          0.02570        0.04850        0.00670
C         -1.39880       -0.56350       -0.14950
O         -1.01240       -1.17000       -1.41770
C          0.25020       -0.62580       -1.36670
N          1.19980       -0.62490       -2.17720
C          0.81720       -0.55930        1.07630
N          1.43950       -1.05070        1.91610
H          1.04510        1.80200        0.14840
H         -0.32730        1.90830       -0.72600
H         -1.69310       -1.31540        0.58310
H         -2.18170        0.18620       -0.28460
H          0.98500       -1.14010       -3.03220
