14
gdb 845	6.96415	2.07749	1.63256	1.0064	59.82	-0.2274	0.014	0.2414	759.2008	0.113597	-324.627681	-324.620808	-324.619864	-324.658563	24.251
C          0.03380        1.45930       -0.04630
C         -0.05340       -0.02330        0.00720
N         -1.09030       -0.77740       -0.17800
C         -0.62390       -2.08350       -0.01540
C         -1.52500       -3.26340       -0.15110
C          0.69910       -2.02840        0.26500
O          1.08310       -0.71240        0.28330
H          0.74270        1.78530       -0.81450
H         -0.95210        1.86350       -0.27650
H          0.37430        1.86900        0.91030
H         -1.97690       -3.29720       -1.14810
H         -0.97940       -4.19660        0.01090
H         -2.34530       -3.21370        0.57270
H          1.46620       -2.75680        0.46390
