16
gdb 18150	3.25645	1.98696	1.5961	3.667	64.91	-0.2475	-0.0283	0.2192	844.1381	0.129009	-383.696881	-383.689427	-383.688483	-383.728618	27.529
C         -0.08940        1.52540       -0.19320
C          0.02570        0.03200        0.01830
C          1.28890       -0.74530       -0.15350
O          2.43600        0.00600        0.27250
C          1.97060       -0.03150        1.63200
C          1.95780        1.27020        2.39510
O          2.32450        2.33850        1.98370
C          0.64070       -0.68020        1.21850
H          0.86760        2.02210       -0.02900
H         -0.40760        1.73200       -1.22050
H         -0.83030        1.96780        0.48090
H         -0.83350       -0.54170       -0.32830
H          1.46290       -1.56570       -0.84010
H          2.57350       -0.74230        2.22150
H          1.57200        1.14190        3.43550
H          0.12270       -1.44090        1.78620
