20
gdb 13760	2.9766	1.48409	1.17304	0.7433	81.45	-0.2404	0.0503	0.2907	1110.2566	0.17488	-311.834	-311.824778	-311.823834	-311.867522	34.669
C         -0.26910        1.44040        0.12130
C          0.13430       -0.02020       -0.12730
C          1.02650       -0.15230       -1.36960
C          0.82170       -0.60120        1.09480
C          0.03630       -1.11930        2.26250
C          0.80550       -2.09990        1.38470
C          0.10240       -3.01510        0.53420
C         -0.47390       -3.79470       -0.17950
H          0.61280        2.06650        0.30260
H         -0.79570        1.85430       -0.74490
H         -0.92570        1.53030        0.99250
H         -0.77800       -0.60390       -0.30390
H          1.96660        0.39690       -1.23690
H          1.27000       -1.20000       -1.56740
H          0.52850        0.25440       -2.25590
H          1.76700       -0.11930        1.33830
H          0.40500       -0.95450        3.26870
H         -1.04460       -1.13820        2.17380
H          1.71680       -2.50360        1.81670
H         -0.98570       -4.48290       -0.80490
