14
gdb 2062	4.91161	2.59324	1.78744	3.2258	59.95	-0.2164	-0.0521	0.1643	682.8781	0.115692	-324.595399	-324.589355	-324.588411	-324.625302	22.725
O          0.01900       -0.05160        0.08560
C         -0.00130        1.15690       -0.03330
C         -1.30910        1.95280       -0.07790
N         -1.23510        3.19970       -0.84070
C         -0.11970        4.04210       -0.41610
C          1.17960        3.30490       -0.21330
C          1.23190        1.97240       -0.08580
H         -2.09830        1.31170       -0.47850
H         -1.58730        2.19110        0.95980
H         -1.10760        2.96990       -1.82190
H          0.01540        4.84360       -1.15120
H         -0.39120        4.54860        0.52500
H          2.08940        3.90100       -0.16290
H          2.16780        1.43500        0.03350
