18
gdb 11026	4.11315	1.72972	1.44894	1.8014	72.43	-0.2311	0.0088	0.2398	911.9449	0.154176	-347.800189	-347.792618	-347.791674	-347.831467	29.821
C         -0.04090        1.53610        0.04720
C          0.04510        0.02950       -0.00060
C         -0.82860       -0.83670        0.88870
C          0.67460       -0.82270        1.08090
C          1.49630       -1.92840        0.41190
O          1.24220       -3.24630        0.88350
C          1.19090       -1.73010       -1.06610
C          0.42520       -0.66030       -1.27980
H          0.90480        1.99880       -0.25690
H         -0.82420        1.90970       -0.62300
H         -0.27650        1.88570        1.05700
H         -1.41540       -0.34150        1.65660
H         -1.31270       -1.70140        0.44410
H          1.05430       -0.37420        1.99140
H          2.56510       -1.78030        0.61180
H          0.29230       -3.39490        0.81500
H          1.54770       -2.42680       -1.81590
H          0.07050       -0.31520       -2.24610
