13
gdb 3088	3.78743	2.36041	2.03998	3.0844	54.86	-0.24	0.0219	0.2619	677.6644	0.101905	-340.620625	-340.613407	-340.612462	-340.6517	25.865
N          0.20140        1.39990        0.04600
C          0.05060       -0.01340        0.04030
C         -0.45660       -0.68680        1.27010
O         -0.81430        0.15870        2.31190
C         -1.33750       -0.73110        0.01490
C         -2.52290        0.06370       -0.00650
N         -3.47720        0.72010       -0.01240
H         -0.14320        1.82440       -0.80780
H         -0.29520        1.80430        0.83250
H          0.80880       -0.54780       -0.52570
H         -0.00950       -1.63300        1.57080
H         -1.68300       -0.09480        2.64330
H         -1.40290       -1.67690       -0.51250
