16
gdb 15572	3.47289	1.79113	1.2671	2.9567	69.64	-0.247	-0.0653	0.1817	941.3952	0.129615	-383.760532	-383.752754	-383.75181	-383.792996	27.825
C          0.14020        1.57750       -0.16230
C         -0.03090        0.07650        0.05420
O          0.47930       -0.64970       -1.07820
C          1.43480       -1.61790       -0.67260
C          1.57130       -1.44370        0.80770
C          0.73750       -0.48760        1.22890
C          0.56230       -0.07440        2.62280
O         -0.21840        0.77530        2.99250
H          1.20010        1.83550       -0.24960
H         -0.36680        1.87850       -1.08300
H         -0.29190        2.12430        0.67930
H         -1.10380       -0.14620        0.16200
H          1.09330       -2.63470       -0.92990
H          2.38780       -1.45990       -1.20210
H          2.24410       -2.02790        1.42490
H          1.21030       -0.61460        3.34780
