22
gdb 8953	3.8895	1.06535	0.89106	0.0014	74.83	-0.2491	0.068	0.3171	1372.4974	0.197476	-387.347683	-387.337137	-387.336193	-387.38297	38.059
C          0.02520        1.58140       -0.00210
C          0.00050        0.05150        0.01630
C         -1.41680       -0.52800       -0.00450
O         -2.13330       -0.12840       -1.17250
C         -1.42960       -2.06460        0.14860
O         -0.71410       -2.46440        1.31730
C         -2.84680       -2.64410        0.12640
C         -2.87160       -4.17400        0.14450
H          1.05030        1.96060       -0.05080
H         -0.52690        1.96970       -0.86260
H         -0.43980        1.99330        0.90060
H          0.54560       -0.34350       -0.85500
H          0.51960       -0.33810        0.89690
H         -1.99340       -0.09940        0.82920
H         -1.60260       -0.38030       -1.93710
H         -0.85230       -2.49320       -0.68470
H         -1.24560       -2.21260        2.08140
H         -3.39270       -2.24930        0.99740
H         -3.36510       -2.25420       -0.75450
H         -2.32030       -4.56250        1.00530
H         -3.89680       -4.55310        0.19210
H         -2.40580       -4.58570       -0.75800
