15
gdb 10115	2.69525	1.5134	1.10273	3.173	65.63	-0.2709	0.0108	0.2816	1072.6397	0.11622	-399.746769	-399.737843	-399.736899	-399.781024	30.85
O          0.20490        1.55630       -0.03510
C          0.33210        0.17190       -0.23150
C         -0.96480       -0.58090        0.10680
O         -1.19830       -0.27690        1.49550
C         -2.23090       -0.90460        2.10450
N         -2.44480       -0.69530        3.32850
C         -2.09100       -0.18790       -0.73760
C         -3.01790        0.11200       -1.44050
H         -0.08990        1.68310        0.87470
H          0.57540        0.01050       -1.28530
H          1.13460       -0.26360        0.38320
H         -0.78290       -1.66000       -0.00100
H         -2.80300       -1.55860        1.43590
H         -3.24830       -1.23740        3.63960
H         -3.83310        0.39130       -2.06190
