16
gdb 9479	3.06311	1.6608	1.55737	2.3499	66.86	-0.2495	0.0244	0.2739	909.2255	0.127608	-383.682148	-383.673623	-383.672679	-383.715115	31.325
C          0.19400        1.39950       -0.08730
C          0.02770       -0.11370       -0.00870
O          0.86250       -0.78900       -0.99690
C          1.72350       -1.34880        0.01490
C          0.83670       -0.82240        1.14720
O          1.52950       -0.01680        2.06020
C         -1.36710       -0.52190       -0.11170
C         -2.51880       -0.86470       -0.15960
H          1.23960        1.67050        0.06960
H         -0.12800        1.74910       -1.07160
H         -0.41620        1.89680        0.67290
H          1.81400       -2.43630       -0.07470
H          2.72170       -0.89420        0.01270
H          0.24270       -1.59400        1.64780
H          0.93760        0.20900        2.78470
H         -3.53540       -1.16670       -0.21850
