14
gdb 10788	4.87188	1.62306	1.28456	1.6989	59.78	-0.2539	0.0086	0.2625	892.4977	0.109157	-415.899815	-415.892838	-415.891894	-415.931386	25.539
N         -0.04980        1.04300       -0.83440
C          0.01840        0.07160       -0.02950
C         -1.23870       -0.57950        0.50570
N         -1.04200       -2.00840        0.68940
C          0.08750       -2.50460        1.26240
O          0.23700       -3.65400        1.62130
C          1.17830       -1.44850        1.42820
O          1.19720       -0.45010        0.40070
H          0.88670        1.38240       -1.06310
H         -1.52530       -0.08430        1.44680
H         -2.03750       -0.40000       -0.21280
H         -1.82860       -2.63660        0.61720
H          1.06800       -0.97150        2.41250
H          2.14680       -1.94610        1.39590
