19
gdb 19976	3.3891	1.7518	1.30243	2.0305	71.76	-0.236	0.0791	0.3151	977.1379	0.166152	-365.015193	-365.007426	-365.006482	-365.04746	29.771
O          0.28580        0.82970       -0.81840
C          0.05470       -0.27210        0.01240
C         -0.02590       -0.07600        1.55330
C         -1.21420       -1.07620        1.57390
C         -1.38780       -0.87500        0.04520
N         -2.34740        0.18030       -0.25270
C         -2.93150        0.16500       -1.59290
C         -3.74040       -0.22990       -0.40840
H         -0.47130        1.41570       -0.69070
H          0.79400       -1.03260       -0.25530
H          0.86210       -0.31650        2.14180
H         -0.34910        0.93960        1.79610
H         -0.90220       -2.09630        1.81160
H         -2.07730       -0.81760        2.19040
H         -1.56960       -1.77890       -0.55790
H         -3.07650        1.13470       -2.06000
H         -2.61690       -0.62460       -2.27220
H         -3.97030       -1.28730       -0.29200
H         -4.48350        0.44640        0.00390
