19
gdb 13393	5.64281	1.04011	0.9483	1.3759	72.25	-0.2465	0.0231	0.2696	1264.3111	0.166546	-365.085284	-365.077007	-365.076063	-365.118862	29.558
C         -0.01780        1.56500       -0.05280
C         -0.00200        0.03590        0.01760
C         -1.40590       -0.57560       -0.00260
C         -1.40850       -2.10710        0.04230
C         -2.83170       -2.73220        0.04980
O         -2.84490       -3.61250       -1.10130
C         -1.62910       -3.45970       -1.67740
N         -0.76950       -2.68840       -1.15970
H          0.99700        1.97450       -0.03420
H         -0.49960        1.91420       -0.97290
H         -0.56670        1.99860        0.79110
H          0.57210       -0.37460       -0.81940
H          0.51660       -0.28450        0.93110
H         -1.98640       -0.20140        0.85260
H         -1.94000       -0.25320       -0.90690
H         -0.83570       -2.43280        0.91990
H         -3.04770       -3.33110        0.93780
H         -3.62490       -1.98890       -0.08190
H         -1.48920       -4.04490       -2.57990
