17
gdb 14982	4.53949	1.45955	1.1651	1.1957	64.97	-0.2512	0.0209	0.2721	1006.8511	0.144055	-401.010248	-401.002764	-401.001819	-401.042214	27.843
O          0.06370        1.41010        0.06750
C          0.05830       -0.00050        0.02120
C         -1.35320       -0.56400       -0.07660
C         -1.43060       -2.08490       -0.11810
C         -2.89890       -2.51490       -0.01900
N         -3.63050       -1.82400        1.03980
C         -3.15680       -0.74020        1.48080
O         -2.04900       -0.05950        1.08800
H         -0.51790        1.66110        0.79420
H          0.62660       -0.29360       -0.86770
H          0.55570       -0.44030        0.90090
H         -1.84830       -0.13190       -0.95680
H         -0.96910       -2.45740       -1.03860
H         -0.86450       -2.49750        0.72560
H         -3.41610       -2.33630       -0.97110
H         -2.97180       -3.59150        0.16860
H         -3.64250       -0.20860        2.29740
