17
gdb 8102	2.89524	2.0872	1.53387	4.1795	68.81	-0.2402	-0.0057	0.2345	888.031	0.140856	-363.856737	-363.848802	-363.847857	-363.888647	29.796
C          0.01070        1.55000       -0.04480
C          0.03920        0.05050        0.13980
N          1.25230       -0.78560       -0.17650
C          2.39660       -0.05810        0.33620
O          3.39380        0.26130       -0.23280
C          1.90360       -0.01280        1.78950
C          0.64510       -0.70160        1.25220
C          0.01380       -1.90020        1.89430
H          0.86070        2.05790        0.41550
H          0.01280        1.79570       -1.11130
H         -0.90640        1.95830        0.39270
H         -0.83220       -0.44120       -0.28990
H          2.50670       -0.66310        2.42930
H          1.80610        0.96480        2.26750
H         -0.54170       -1.60800        2.79300
H         -0.68370       -2.38900        1.20860
H          0.77160       -2.63280        2.19090
