11
gdb 2748	4.84537	2.28136	1.76883	3.1806	47.8	-0.2765	-0.0518	0.2247	671.4939	0.077835	-380.417684	-380.411492	-380.410548	-380.448362	20.97
O         -0.56990        0.68540       -0.52820
C          0.24590        0.92470        0.32280
C          1.38400        1.90550        0.14560
C          1.39900        2.75600       -1.12680
O          1.18000        3.97170       -0.32750
C          1.16470        3.27410        0.84320
O          1.02260        3.67540        1.94980
H          0.20780        0.44500        1.32270
H          2.32950        1.44520        0.44570
H          2.34700        2.81660       -1.66170
H          0.56330        2.57910       -1.80330
