18
gdb 12910	3.13757	1.65885	1.33899	3.5316	73.59	-0.2343	-0.0173	0.217	981.1777	0.15326	-347.790019	-347.782189	-347.781245	-347.822064	29.553
C         -0.01810        1.54630        0.03350
C         -0.03180        0.04480        0.06040
C         -1.30950       -0.81590        0.02920
C         -0.63760       -1.81950        1.02230
C          0.62040       -0.94260        1.01320
C          1.18280       -0.76200       -0.39350
C          1.17400       -1.79950       -1.44870
O          2.06730       -1.94570       -2.25090
H          0.97300        1.94060        0.27860
H         -0.29170        1.92840       -0.95700
H         -0.73270        1.95640        0.75670
H         -2.15400       -0.29520        0.48740
H         -1.63230       -1.19680       -0.94350
H         -1.13050       -1.81840        1.99670
H         -0.52520       -2.85750        0.69840
H          1.26700       -0.75270        1.86260
H          2.09480       -0.17140       -0.41630
H          0.28200       -2.46080       -1.47760
