20
gdb 16177	4.09241	1.61138	1.39361	0.998	74.5	-0.2421	0.0899	0.332	976.5852	0.178145	-348.99822	-348.990417	-348.989473	-349.030113	30.22
C         -0.38600        1.32630       -0.16260
O          0.05780        0.00120        0.05710
C          0.79880       -0.52650       -0.99700
C          0.06870       -1.04420       -2.21420
C          0.74790       -2.00730       -1.25290
C          2.15110       -2.48410       -1.59380
C          2.91850       -1.19470       -1.97780
C          2.23990       -0.06040       -1.17720
H          0.45080        2.03530       -0.23840
H         -0.99000        1.40370       -1.07820
H         -1.00230        1.60330        0.69620
H         -1.01430       -1.01590       -2.16220
H          0.47480       -0.88940       -3.20930
H          0.10450       -2.63250       -0.64450
H          2.59820       -2.94690       -0.70570
H          2.17550       -3.23180       -2.39400
H          3.98890       -1.26830       -1.76920
H          2.82260       -1.00470       -3.05150
H          2.33500        0.91040       -1.67520
H          2.68360        0.03660       -0.17880
