17
gdb 10349	2.75758	1.75015	1.18936	13.0782	63.7	-0.1797	-0.0145	0.1652	1005.2424	0.141116	-438.088977	-438.080054	-438.07911	-438.123023	31.352
C         -0.49530        0.68590        0.27660
O          0.83230        0.41210       -0.20350
C          0.93860       -0.42340       -1.37960
C          1.23490       -1.84700       -0.89350
N          2.13180       -1.66890        0.34100
H          3.11820       -1.59920        0.09410
H          1.78610       -0.71990        0.66360
H          2.01640       -2.38750        1.05290
C         -0.27010       -0.50010       -2.41170
O         -0.90440        0.54430       -2.58730
O         -0.34820       -1.64310       -2.90100
H         -1.08130        1.12970       -0.52800
H         -0.99460       -0.22880        0.62740
H         -0.37150        1.37130        1.11850
H          1.80910       -0.02870       -1.91830
H          0.32920       -2.35010       -0.55720
H          1.73820       -2.46440       -1.63060
