15
gdb 372	6.42417	2.20162	1.75659	4.0632	57.23	-0.3144	0.0383	0.3527	712.3282	0.130797	-250.583259	-250.575974	-250.57503	-250.614218	25.346
C         -0.08870        1.54480        0.05590
C          0.01270        0.01820        0.01030
C          0.77060       -0.51500       -1.23060
C          2.25570       -0.10410       -1.27240
C          0.65200       -1.97630       -1.29360
N          0.56130       -3.12810       -1.33050
H          0.89120        2.02130        0.15160
H         -0.56730        1.93860       -0.84770
H         -0.69050        1.85970        0.91320
H          0.51040       -0.35590        0.91250
H         -0.99320       -0.41470        0.01080
H          0.27520       -0.12050       -2.12820
H          2.75220       -0.52570       -2.14960
H          2.34720        0.98330       -1.31840
H          2.78010       -0.45950       -0.38040
