18
gdb 9394	5.60873	0.81715	0.73992	0.3963	71.41	-0.253	0.0304	0.2834	1510.8823	0.15032	-384.886604	-384.876731	-384.875787	-384.921892	34.171
C          0.01840        1.38780       -0.01820
O          0.01300       -0.01760        0.04260
C         -1.28760       -0.56220       -0.00590
C         -1.16770       -2.08010        0.04470
C         -2.54050       -2.77380       -0.00470
O         -3.28410       -2.41080       -1.16800
C         -2.40200       -4.22830        0.11250
C         -2.26510       -5.42150        0.16440
H          1.06080        1.71390        0.01960
H         -0.43730        1.75960       -0.94990
H         -0.52480        1.83680        0.82890
H         -1.89040       -0.19790        0.84560
H         -1.80950       -0.25340       -0.92430
H         -0.55530       -2.42640       -0.79600
H         -0.64690       -2.37620        0.96140
H         -3.15010       -2.40830        0.83190
H         -2.88760       -2.86950       -1.91750
H         -2.15950       -6.47670        0.22460
