13
gdb 16791	3.86302	2.037	1.46225	1.7793	58.3	-0.255	-0.0473	0.2076	800.5173	0.09538	-398.618156	-398.61166	-398.610715	-398.649402	24.135
O          0.03430        0.00910       -0.13350
C          0.00670        1.20520       -0.01230
C         -1.23000        2.09990        0.04730
C         -0.69640        3.53160        0.00680
O         -1.33470        4.54140        0.04030
N          0.75070        3.52720       -0.08530
C          1.34460        3.03050        1.16850
C          1.20260        2.11820       -0.00050
H         -1.87330        1.90560       -0.81680
H         -1.84200        1.92680        0.93730
H          2.32360        3.43620        1.40070
H          0.69320        2.88730        2.02740
H          2.07540        1.83370       -0.57770
