16
gdb 5595	3.47564	1.83231	1.26371	1.7468	67.86	-0.1803	0.0477	0.228	934.8397	0.132729	-379.947449	-379.9397	-379.938756	-379.97931	29.432
N         -0.26550        1.13490       -0.67420
C         -0.17060       -0.16630       -0.14830
C         -1.14670       -1.04870        0.27990
C         -2.60430       -0.72310        0.38040
O         -3.10330       -0.04480       -0.78310
C         -0.48300       -2.27210        0.60660
C          0.85910       -2.09610        0.38520
N          1.03680       -0.80960       -0.08170
H         -1.24130        1.33390       -0.87250
H          0.08760        1.84340       -0.03750
H         -3.18120       -1.63840        0.57820
H         -2.81580       -0.02980        1.20410
H         -2.86520       -0.59100       -1.54090
H         -0.95080       -3.16980        0.98350
H          1.69790       -2.75900        0.51910
H          1.89550       -0.42320       -0.43440
