20
gdb 8034	3.46432	1.83708	1.49444	1.7188	74.42	-0.2353	0.0796	0.3148	941.0832	0.176641	-348.982744	-348.974665	-348.973721	-349.015069	31.048
C         -0.63420        1.35540       -0.05800
C          0.07130        0.00770        0.00210
C          1.39450       -0.18200       -0.81100
C          2.09840       -0.71330        0.46720
C          2.87880       -1.99990        0.41710
O          2.81270        0.34880        1.15160
C          1.67680        0.62990        2.00090
C          0.80930       -0.42920        1.30340
H          0.04810        2.18200        0.16570
H         -1.04200        1.53260       -1.05920
H         -1.46640        1.40440        0.65350
H         -0.64230       -0.77760       -0.26890
H          1.32420       -0.89230       -1.63950
H          1.85160        0.74240       -1.17310
H          3.78640       -1.86600       -0.18300
H          3.17930       -2.31520        1.42080
H          2.28520       -2.79850       -0.03970
H          1.90180        0.40540        3.05170
H          1.35110        1.67470        1.93070
H          0.31500       -1.16270        1.94120
