18
gdb 11116	5.39303	1.07106	1.02965	0.9078	74.76	-0.2463	0.0504	0.2967	1189.7421	0.152063	-347.749126	-347.740527	-347.739583	-347.782566	31.384
C         -0.75750        1.47330       -0.09540
O         -0.32870        0.25770        0.47710
C         -1.06880       -0.85000        0.04640
C         -0.78900       -1.43820       -1.36700
C         -0.82150       -2.86910       -0.72410
C         -0.62330       -2.18300        0.67220
C         -2.08720       -3.56180       -0.87680
C         -3.14260       -4.12590       -1.00030
H         -0.13660        2.26810        0.32460
H         -0.64320        1.47710       -1.18990
H         -1.81260        1.68300        0.14080
H         -2.14610       -0.67440        0.18870
H         -1.49970       -1.23970       -2.17010
H          0.22370       -1.18400       -1.69160
H         -0.00300       -3.52560       -1.03030
H          0.43650       -2.13630        0.93410
H         -1.19610       -2.57580        1.51270
H         -4.06910       -4.63220       -1.11180
