22
gdb 15261	2.53654	1.56368	1.18156	1.0557	79.1	-0.2338	0.0796	0.3135	1156.6882	0.198518	-350.186044	-350.176144	-350.175199	-350.22083	35.482
C          0.01340        1.52990        0.18130
C          0.01740        0.04920       -0.21850
C         -1.36560       -0.56730       -0.13130
C         -1.60210       -2.06460        0.02810
C         -0.45950       -3.05520        0.10690
C         -1.89480       -1.10460        1.16730
O         -1.03110       -1.04940        2.26160
C         -1.40160       -1.93360        3.30030
H          1.01130        1.96950        0.08430
H         -0.66900        2.11090       -0.44940
H         -0.30960        1.64490        1.22030
H          0.39370       -0.05690       -1.24430
H          0.71180       -0.49250        0.42820
H         -2.10380       -0.04940       -0.74090
H         -2.47990       -2.44410       -0.49000
H          0.31190       -2.72510        0.80590
H         -0.81820       -4.03280        0.44740
H          0.01170       -3.20120       -0.87140
H         -2.93820       -0.91620        1.42780
H         -1.39160       -2.98140        2.96950
H         -0.67670       -1.80530        4.10780
H         -2.40670       -1.70220        3.68490
