17
gdb 20091	3.39133	1.57517	1.43266	2.9619	63.86	-0.2308	0.0484	0.2792	934.9989	0.14222	-400.931918	-400.923883	-400.922939	-400.9648	29.903
O         -0.15950        0.98310       -0.61030
C         -0.17400       -0.32290       -0.12830
C         -0.39280       -0.52030        1.35040
O         -0.72010        0.64890        2.06140
C         -1.45510       -0.98480        0.37780
C         -2.81600       -0.35310        0.35560
C         -3.21520        0.67610       -0.64310
N         -3.75150       -0.69280       -0.73500
H         -0.52100        1.53260        0.09970
H          0.54230       -0.94310       -0.65740
H          0.17170       -1.25900        1.91570
H          0.10090        1.03290        2.38970
H         -1.47720       -2.06650        0.25320
H         -3.30640       -0.31940        1.32600
H         -3.94520        1.43200       -0.36610
H         -2.47260        0.99320       -1.36560
H         -3.24430       -1.19440       -1.46150
