16
gdb 7906	3.53805	1.78237	1.26626	0.7204	68.23	-0.2376	-0.0527	0.1849	952.3798	0.131122	-379.971466	-379.963679	-379.962735	-380.003533	29.281
C         -0.10240        1.55780        0.01890
C          0.05470        0.03720       -0.00150
C          0.81820       -0.50260       -1.23540
C          1.90640       -1.36620       -0.62380
O          2.71090       -2.09440       -1.15250
C          1.77270       -1.15070        0.86140
N          2.69410       -1.72200        1.67820
N          0.78090       -0.41350        1.20350
H          0.87700        2.04630       -0.02990
H         -0.70170        1.90010       -0.83110
H         -0.59230        1.87510        0.94310
H         -0.94750       -0.40950        0.03950
H          0.20410       -1.08520       -1.92730
H          1.28570        0.29980       -1.81720
H          3.26500       -2.44170        1.26310
H          2.49300       -1.79020        2.66190
