16
gdb 17768	5.72361	1.24388	1.2022	3.1578	69.33	-0.2468	0.0293	0.2761	1013.4221	0.132444	-342.713061	-342.706247	-342.705303	-342.744747	25.675
N         -0.45440       -0.69440       -0.58300
C         -0.21230        0.12490        0.19510
C          0.11630        1.16920        1.16330
C          1.46360        1.81950        0.83510
C          1.65010        2.95590       -0.20090
C          0.98340        3.86860        0.84960
N          1.90770        2.99740        1.72880
C          2.93640        3.24460        0.60460
H         -0.70810        1.88620        1.19040
H          0.17860        0.72090        2.16190
H          2.22680        1.03530        0.80580
H          1.50690        2.92510       -1.28540
H          1.26390        4.92460        0.85390
H         -0.08120        3.76270        1.06220
H          3.74210        2.50630        0.57980
H          3.32580        4.26510        0.59790
