18
gdb 14032	5.22165	1.18918	1.10895	2.2008	68.3	-0.2587	0.0657	0.3244	1111.2739	0.153228	-384.905397	-384.897353	-384.896408	-384.938241	29.836
O          0.12320        1.28000       -0.21960
C          0.09340        0.00100        0.39180
C         -1.30670       -0.55580        0.42120
O         -1.82020       -0.93860       -0.87570
C         -1.62960       -1.94940        0.09920
C         -0.70460       -3.16370       -0.04640
C         -1.67950       -3.93540        0.89390
C         -2.74750       -2.82070        0.67810
H         -0.27670        1.17470       -1.09070
H          0.76040       -0.70670       -0.12240
H          0.46750        0.13760        1.41260
H         -2.01950        0.01480        1.01940
H         -0.72200       -3.54800       -1.07050
H          0.33500       -3.06030        0.27230
H         -1.95700       -4.94510        0.58830
H         -1.31860       -3.96780        1.92430
H         -3.28100       -2.44450        1.55410
H         -3.47640       -3.08640       -0.09320
