14
gdb 14222	4.76933	1.80771	1.62568	2.6457	61.48	-0.2387	0.0048	0.2435	785.8828	0.107071	-382.502218	-382.495868	-382.494924	-382.532419	25.233
O         -0.11450        1.32000       -0.05360
C          0.03080       -0.04540       -0.04250
C          0.88040       -0.90400       -0.98090
C          0.00710       -2.09430       -0.46770
C         -1.06600       -1.03910        0.01610
C         -0.17220       -0.85220        1.27470
C          0.40050       -2.20920        1.02300
O          0.81810       -3.09820        1.70980
H          0.65430        1.71570        0.37330
H          0.66820       -0.66620       -2.02700
H          1.96170       -0.96560       -0.81510
H         -0.17570       -2.97120       -1.08160
H         -2.14190       -0.99550       -0.04350
H         -0.42850       -0.34500        2.19490
