12
gdb 18926	3.66751	2.72851	2.09711	2.699	52.56	-0.2336	-0.0401	0.1935	642.6294	0.084615	-418.411934	-418.406694	-418.40575	-418.441226	20.863
O          0.00620        0.08390        0.05120
C         -0.01280        1.27550        0.01630
C         -1.16390        2.30690       -0.02540
O         -0.90120        2.92390        1.28020
C          0.25810        3.50550        0.65600
C         -0.35380        3.45500       -0.75100
O          0.82400        2.87540       -1.34150
C          1.10500        2.34360       -0.00260
H         -2.19320        2.00910       -0.19970
H          0.72050        4.33520        1.18590
H         -0.84190        4.23750       -1.32760
H          2.14300        2.08930        0.18770
