15
gdb 17324	2.85492	2.48043	1.76749	2.6696	60.01	-0.2178	0.061	0.2787	768.9333	0.118588	-399.693901	-399.687171	-399.686227	-399.724294	27.191
O          0.10040        1.42370       -0.08130
C         -0.08400        0.05540        0.00810
C         -0.44350       -0.77670        1.23230
C         -1.61400       -0.19790        2.06490
N         -2.03170        1.12260        1.49690
C         -2.49580       -0.15610        0.88680
C         -1.36070       -0.73880       -0.01210
O         -1.62980       -1.77130       -0.89210
H         -0.60980        1.80140        0.46720
H          0.67730       -0.46340       -0.57420
H          0.18990       -1.57640        1.59520
H         -1.83440       -0.44230        3.09530
H         -2.78920        1.48570        2.07440
H         -3.54730       -0.38960        0.78180
H         -1.68960       -1.40100       -1.78020
