18
gdb 14383	3.62633	2.21412	1.87391	1.6937	69.86	-0.2276	0.083	0.3106	793.1503	0.153219	-347.739658	-347.73258	-347.731636	-347.77026	28.603
C          0.04140        1.53210        0.01720
C          0.03420        0.00720       -0.01380
C         -1.36970       -0.56130        0.19530
C          0.78200       -0.69500       -1.16170
C          2.24850       -0.76110       -0.69790
O          2.35160       -0.09190        0.56060
C          1.08280       -0.72220        0.89440
C          1.28730       -1.79800       -0.23710
H          1.06130        1.91510       -0.04580
H         -0.53700        1.93760       -0.82090
H         -0.41200        1.90910        0.94160
H         -2.04860       -0.23080       -0.59830
H         -1.36750       -1.65590        0.19800
H         -1.78850       -0.21860        1.14860
H          0.49460       -0.77380       -2.20350
H          3.11110       -0.79500       -1.34990
H          0.93580       -0.86800        1.96370
H          1.26570       -2.87730       -0.28190
