12
gdb 2138	3.64061	3.60402	1.96873	1.6932	50.16	-0.2743	-0.0288	0.2455	624.508	0.090797	-360.564423	-360.558401	-360.557457	-360.594365	21.509
C         -0.04650        1.56250       -0.00950
C          0.03860        0.03390       -0.02720
N          0.83700       -0.48480       -1.14400
C          1.74850       -1.18160       -0.61000
O          1.78570       -1.29410        0.75970
C          0.71200       -0.52890        1.22440
O          0.46870       -0.40220        2.38160
H          0.95240        2.00570        0.02450
H         -0.55110        1.91600       -0.91100
H         -0.60520        1.88990        0.87080
H         -0.97450       -0.38290       -0.08990
H          2.53320       -1.72250       -1.12490
