16
gdb 16869	3.96985	1.93866	1.45197	4.3587	64.13	-0.2555	0.0151	0.2707	853.5475	0.132364	-383.768958	-383.762373	-383.761429	-383.799794	25.637
O         -0.05670        0.06200       -0.63540
C         -0.07900        1.12540       -0.08230
C         -1.31930        1.99070        0.06530
C         -1.36420        2.69450        1.43110
C         -0.10010        3.52700        1.58570
C          1.02750        3.08160        2.49380
C          1.14040        2.90610        1.00890
O          1.06730        1.59210        0.49450
H         -1.30820        2.74250       -0.73400
H         -2.17870        1.34130       -0.11010
H         -2.25580        3.32290        1.50630
H         -1.44150        1.94620        2.22700
H         -0.21510        4.59500        1.43060
H          1.64570        3.83410        2.97020
H          0.87050        2.18090        3.07800
H          1.84990        3.50800        0.45060
