14
gdb 7015	4.20262	1.27985	1.00857	4.3303	65.78	-0.2555	-0.027	0.2284	1089.9999	0.106156	-378.719458	-378.711246	-378.710301	-378.752772	28.938
N          0.49280        0.90550       -1.72810
C         -0.01950        0.31770       -0.73130
C         -1.47940       -0.13410       -0.79800
C         -2.18570       -0.12750        0.47720
C         -2.73240       -0.13860        1.54830
N          0.62470       -0.03470        0.47050
C          1.94470        0.17650        0.78150
O          2.77470        0.66730        0.05010
H          1.48070        1.10210       -1.56260
H         -1.97260        0.51080       -1.52940
H         -1.49810       -1.15000       -1.21580
H         -3.24340       -0.13410        2.47970
H          0.03340       -0.40820        1.20130
H          2.17710       -0.16670        1.80770
