19
gdb 1569	4.71846	1.34793	1.11325	1.8129	64.79	-0.2568	0.0729	0.3297	1100.4745	0.169193	-348.045292	-348.03605	-348.035106	-348.079197	31.975
C         -0.28080        1.37730       -0.34420
C         -0.08270       -0.12780       -0.53670
C          1.28710       -0.48430       -1.11790
O          2.36050       -0.05880       -0.28300
C          1.43100       -1.98010       -1.40890
O          0.46620       -2.36010       -2.36370
C          0.52780       -3.72570       -2.69740
H          0.50880        1.79610        0.28590
H         -0.25030        1.90250       -1.30510
H         -1.24580        1.59420        0.12360
H         -0.19590       -0.64920        0.42670
H         -0.85070       -0.54050       -1.19880
H          1.43060        0.05750       -2.06080
H          2.21770       -0.43880        0.59130
H          2.45110       -2.17820       -1.77470
H          1.29970       -2.55660       -0.47320
H          1.50480       -3.99720       -3.12730
H          0.34990       -4.36870       -1.82060
H         -0.25060       -3.91790       -3.43990
