18
gdb 17829	4.50434	1.25468	1.0947	3.2151	67.97	-0.2382	0.0744	0.3126	1095.2033	0.15365	-384.891849	-384.883795	-384.88285	-384.925207	29.268
O         -0.00570        1.46310        0.18570
C          0.00350        0.06970        0.06130
C         -0.52300       -0.78040        1.18960
C         -1.33290       -0.60250       -0.08490
C         -2.60220        0.20230       -0.07170
C         -3.24310        0.57000       -1.43160
O         -4.49670       -0.03750       -1.05700
C         -3.93530       -0.54670        0.16900
H          0.67760        1.71000        0.81730
H          0.82970       -0.32750       -0.52830
H         -0.05800       -1.73920        1.39090
H         -0.87580       -0.25090        2.06910
H         -1.35260       -1.45800       -0.75650
H         -2.48410        1.07340        0.57360
H         -3.35040        1.63810       -1.65200
H         -2.78910        0.07190       -2.30000
H         -3.85110       -1.64280        0.15900
H         -4.52020       -0.24540        1.04640
