20
gdb 12537	3.17207	1.74567	1.21755	1.3584	76.02	-0.2384	0.0208	0.2592	1018.2449	0.17887	-349.017528	-349.009626	-349.008681	-349.049566	30.838
O         -0.02750        1.43000       -0.08360
C          0.02090        0.00680       -0.00850
C          0.85280       -0.43950        1.20000
C          1.10780       -1.95600        1.29460
C         -0.09230       -2.78600        1.68450
C         -1.27400       -2.79110        1.06740
C         -1.64850       -1.96700       -0.14170
C         -1.43820       -0.44930        0.00490
H          0.87590        1.76020       -0.04560
H          0.49740       -0.39930       -0.92020
H          1.82740        0.06570        1.13450
H          0.37140       -0.07990        2.11680
H          1.50490       -2.30540        0.32930
H          1.90840       -2.12730        2.02100
H          0.03810       -3.43860        2.54480
H         -2.04870       -3.44840        1.45620
H         -1.08640       -2.31870       -1.02020
H         -2.70220       -2.14530       -0.37760
H         -1.91300       -0.09300        0.92650
H         -1.93550        0.06270       -0.82620
