19
gdb 2928	5.87579	1.74573	1.43298	0.1643	72.04	-0.2334	0.0315	0.2649	894.832	0.172794	-273.804251	-273.79695	-273.796006	-273.835617	27.533
C          0.02890        1.55020       -0.01020
C         -0.00500        0.01960        0.04300
C         -1.41550       -0.57200       -0.02420
C         -2.18830       -0.29110       -1.34520
C         -3.00200       -1.54670       -1.55080
C         -2.60930       -2.53400       -0.74810
C         -1.46130       -2.11740        0.13900
H          1.05400        1.92750        0.05910
H         -0.40070        1.92900       -0.94360
H         -0.54260        1.98650        0.81700
H          0.59340       -0.39140       -0.78200
H          0.48040       -0.32050        0.96720
H         -2.00640       -0.14040        0.79460
H         -2.80440        0.61340       -1.28700
H         -1.49920       -0.13560       -2.19000
H         -3.78350       -1.62080       -2.29950
H         -3.02110       -3.53750       -0.74120
H         -0.52280       -2.58350       -0.19890
H         -1.59060       -2.42020        1.18480
