17
gdb 7739	3.31381	1.79599	1.2114	5.6393	74.62	-0.214	-0.0171	0.1969	975.5651	0.144288	-363.916693	-363.909271	-363.908327	-363.948151	28.921
N          0.05390        1.36920        0.18130
C         -0.01340        0.01110        0.01630
C         -1.18670       -0.67260       -0.00460
C         -1.26440       -2.12560       -0.04510
O         -2.32640       -2.72730       -0.05640
C          0.06710       -2.88060       -0.04260
C          1.19430       -2.08060       -0.70080
C          1.32010       -0.69320       -0.06300
H          0.87830        1.85080       -0.13870
H         -0.80140        1.89860        0.11460
H         -2.13570       -0.14490        0.03940
H          0.32320       -3.09260        1.00550
H         -0.09260       -3.84560       -0.53000
H          2.14750       -2.61360       -0.62270
H          0.98090       -1.96410       -1.77010
H          2.02960       -0.07220       -0.62510
H          1.72990       -0.77730        0.95360
