17
gdb 14483	4.88382	1.76498	1.71896	1.968	71.61	-0.2051	0.0746	0.2797	847.6219	0.141108	-326.61535	-326.608202	-326.607257	-326.646134	27.99
C          0.00890        1.51620        0.02340
C         -0.01570        0.02490        0.00140
C          0.97740       -0.99610       -0.49350
C          0.61340       -0.99040        0.97090
C         -0.51760       -1.99970        0.62320
C         -1.06320       -3.19550        1.32400
C         -1.12640       -1.01600       -0.31400
N         -0.11220       -2.01070       -0.83050
H          1.00640        1.88090        0.29250
H         -0.24500        1.93660       -0.95680
H         -0.69990        1.92060        0.75570
H          1.92430       -0.90900       -1.01300
H          1.20830       -0.80860        1.85560
H         -1.56710       -2.91440        2.25570
H         -1.78760       -3.70530        0.68090
H         -0.26660       -3.90750        1.56730
H         -2.12300       -0.93850       -0.73580
