19
gdb 13512	3.21839	1.58614	1.41397	3.4196	71.43	-0.2411	0.0289	0.2701	983.3138	0.165339	-365.094499	-365.085535	-365.084591	-365.128666	32.272
C         -0.73570        1.30080        0.20780
C         -0.24990       -0.14210        0.11910
C          0.79690       -0.40680       -1.00340
C          1.91930       -0.43830        0.06600
C          0.84810       -0.56610        1.17570
C          1.01930        0.32760        2.39030
N          0.34620       -0.08050        3.50750
O          1.68050        1.35060        2.37380
H          0.10060        2.00280        0.26840
H         -1.33420        1.55150       -0.67470
H         -1.36100        1.45800        1.09350
H         -1.11170       -0.81640        0.10300
H          0.64970       -1.37410       -1.49150
H          0.87460        0.36050       -1.77860
H          2.65450       -1.24310       -0.00010
H          2.44320        0.51450        0.16380
H          0.69350       -1.60440        1.48580
H         -0.23610       -0.89880        3.51460
H          0.35660        0.51640        4.31840
