16
gdb 14458	3.38109	2.44045	2.00517	0.819	63.44	-0.2303	0.072	0.3023	731.2433	0.132002	-383.694083	-383.687871	-383.686927	-383.724032	25.259
O          0.11320        1.36210        0.15270
C          0.06430       -0.01350        0.06580
C          0.69620       -0.98530        1.07030
C          0.02560       -1.89350        0.00680
C         -1.21240       -0.94000       -0.02810
C         -1.68100       -0.87880       -1.47480
O         -0.41800       -0.85590       -2.17070
C          0.51790       -0.92890       -1.10820
H         -0.09600        1.72550       -0.71550
H          1.78870       -1.00300        1.11780
H          0.25540       -1.00670        2.06930
H          0.00590       -2.97970       -0.03020
H         -1.94200       -0.95240        0.78120
H         -2.26480       -1.75250       -1.78930
H         -2.25640        0.02680       -1.70830
H          1.54060       -0.93950       -1.48320
