16
gdb 7061	6.25058	0.95542	0.90233	3.912	71.93	-0.245	0.0062	0.2512	1247.0595	0.128275	-342.739692	-342.730782	-342.729838	-342.773418	31.406
C          0.00010        1.48590       -0.03820
N          0.00820        0.02570       -0.02970
C          0.72950       -0.52600        1.12150
C          2.14380       -0.16620        1.12620
C          3.30930        0.12230        1.15510
C         -1.33510       -0.53350       -0.09040
C         -2.01100       -0.20520       -1.35080
N         -2.56140        0.05250       -2.33280
H          1.02920        1.84920       -0.03240
H         -0.48940        1.84320       -0.94730
H         -0.52750        1.91330        0.83500
H          0.27590       -0.20930        2.08240
H          0.64230       -1.61920        1.08350
H          4.34130        0.37300        1.17300
H         -1.27140       -1.62540       -0.01890
H         -1.98740       -0.19630        0.74000
