19
gdb 13680	5.28518	0.85599	0.80465	2.8375	73.75	-0.2333	-0.0213	0.2119	1432.7941	0.163236	-365.040203	-365.03106	-365.030116	-365.075166	31.909
C          0.21890        1.51350       -0.52920
C          0.04930        0.07220       -0.09970
C          1.22300       -0.82530        0.10040
N          0.39610       -0.42200        1.23650
C          0.98500        0.47880        2.21780
C          1.64130       -0.34120        3.33960
C          2.07310        0.52940        4.49510
O          3.19320        0.59910        4.93120
H          1.18620        1.92990       -0.23830
H          0.14580        1.58310       -1.61950
H         -0.56740        2.14880       -0.10620
H         -0.86660       -0.38450       -0.47340
H          1.18530       -1.87660       -0.17250
H          2.20820       -0.36800        0.00500
H          1.73290        1.16750        1.79270
H          0.18020        1.09620        2.63710
H          0.89720       -1.05950        3.70940
H          2.50630       -0.89890        2.97040
H          1.24910        1.13620        4.94190
