20
gdb 5858	4.2978	0.96276	0.94558	1.3104	79.98	-0.2375	0.0564	0.294	1363.6986	0.172898	-348.992055	-348.981499	-348.980555	-349.028173	37.324
C          0.09010        1.54090       -0.01400
C          0.04220        0.08560        0.00550
C          0.00280       -1.11780        0.01070
C         -0.02670       -2.57560        0.02800
C         -1.44450       -3.19800        0.03440
C         -1.32370       -4.72750        0.10380
C         -2.29010       -2.66000        1.19440
O         -2.02030       -2.81640       -1.21700
H          1.03450        1.90190       -0.43670
H         -0.72190        1.95770       -0.62050
H         -0.00090        1.96060        0.99420
H          0.49650       -2.96470       -0.85410
H          0.51750       -2.94750        0.90520
H         -0.84590       -5.05310        1.03370
H         -2.31590       -5.19070        0.06040
H         -0.73820       -5.10190       -0.74090
H         -2.37780       -1.57370        1.12430
H         -3.29550       -3.09700        1.16780
H         -1.84590       -2.91270        2.16280
H         -2.93210       -3.12590       -1.22610
