11
gdb 21406	4.11162	2.07036	1.37699	1.0489	57.31	-0.273	-0.0862	0.1867	793.8778	0.074512	-426.909328	-426.903066	-426.902122	-426.940189	22.82
N         -0.07110        1.31750        0.00860
C         -0.01410        0.05150        0.00120
N         -1.18660       -0.70370        0.00350
C         -1.22820       -2.07250       -0.00390
O         -2.22290       -2.75320       -0.00200
N          0.06350       -2.60960       -0.01400
N          1.23100       -1.92310       -0.01680
N          1.21760       -0.66800       -0.00980
H          0.87620        1.69420        0.00540
H         -2.06780       -0.20780        0.01120
H          0.16100       -3.61370       -0.02010
