16
gdb 12346	3.1219	2.13298	1.36044	2.8022	65.76	-0.2552	-0.0273	0.2278	884.253	0.131163	-383.774813	-383.767657	-383.766713	-383.806216	27.42
O          0.00710        1.40900        0.08510
C         -0.02200        0.01410       -0.00710
C         -1.46320       -0.53360       -0.05020
C         -1.48590       -2.00870       -0.35050
C         -0.49370       -2.64620       -0.97070
C          0.75280       -1.96200       -1.47600
C          0.73780       -0.46530       -1.23580
O          1.28400        0.33650       -1.96290
H          0.54230        1.70150       -0.67070
H          0.47780       -0.44210        0.86630
H         -1.94990       -0.32060        0.90730
H         -2.02720        0.02940       -0.80660
H         -2.36590       -2.56540       -0.03970
H         -0.56380       -3.71430       -1.15830
H          1.64390       -2.37330       -0.97680
H          0.91080       -2.13580       -2.54670
