19
gdb 2265	3.48309	2.66239	2.04795	0.3243	71.11	-0.2419	0.0882	0.3301	754.1789	0.171696	-273.765782	-273.758453	-273.757509	-273.796444	28.518
C         -0.11670        1.55910        0.02590
C          0.07460        0.04710        0.00370
C          1.17820       -0.57830       -0.91890
C          1.77020       -1.29010        0.30190
C          2.17250       -0.26990        1.33230
C          0.72000       -0.65270        1.21930
C         -0.05770       -1.23650        2.36450
H          0.81980        2.08370        0.24150
H         -0.48290        1.92220       -0.94110
H         -0.84640        1.85500        0.78820
H         -0.88670       -0.43240       -0.21310
H          0.76510       -1.25310       -1.67200
H          1.84730        0.13110       -1.41970
H          2.16120       -2.30110        0.31580
H          2.67790       -0.66550        2.20830
H          2.53250        0.70950        1.02420
H         -0.47560       -0.45110        3.00690
H         -0.89390       -1.85020        2.00860
H          0.57650       -1.86960        2.99430
