22
gdb 6927	4.49808	0.92475	0.86975	1.2725	79.31	-0.2577	0.0815	0.3393	1417.8267	0.198311	-350.196099	-350.186144	-350.1852	-350.230775	36.368
C          0.01930        1.53930       -0.13070
C          0.00140        0.02870        0.01520
C         -1.20840       -0.62580       -0.62760
C          1.31320       -0.72210       -0.04390
C          0.55230       -0.63060        1.26390
C          1.10910        0.12700        2.45060
C          2.06180       -0.72690        3.28160
O          2.52200        0.06360        4.36820
H          0.91760        1.99020        0.29780
H         -0.01530        1.82060       -1.18990
H         -0.84950        1.99610        0.35850
H         -1.25160       -0.40580       -1.70120
H         -1.18480       -1.71400       -0.51200
H         -2.14070       -0.26250       -0.17840
H          1.34900       -1.67330       -0.56550
H          2.22400       -0.13660       -0.13120
H          0.02600       -1.54050        1.54910
H          1.65120        1.02240        2.12980
H          0.29720        0.47100        3.10380
H          1.53680       -1.62830        3.63900
H          2.89780       -1.06720        2.65000
H          3.12770       -0.46890        4.89170
