18
gdb 8432	3.65059	1.7525	1.74192	1.1484	66.36	-0.2577	0.0758	0.3335	851.3208	0.153742	-384.938555	-384.931137	-384.930193	-384.9696	29.662
C          0.50110        1.32060        0.01400
C         -0.11360       -0.08030       -0.01970
O         -1.53870        0.00840       -0.02550
C          0.41800       -0.91230       -1.23290
C          1.51150       -1.79200       -0.66970
O          2.47940       -1.08350        0.12130
C          1.42590       -1.79220        0.79590
C          0.27640       -0.91390        1.23290
H          1.59010        1.25700        0.06580
H          0.23560        1.88090       -0.89200
H          0.13190        1.87580        0.88190
H         -1.79020        0.66650       -0.68210
H         -0.39520       -1.54170       -1.61090
H          0.76610       -0.27720       -2.05460
H          1.90570       -2.62870       -1.24120
H          1.75200       -2.62860        1.40860
H          0.52500       -0.27790        2.08770
H         -0.57560       -1.54030        1.51770
