16
gdb 18878	3.27719	2.50079	2.12149	2.823	62.96	-0.222	0.0704	0.2924	716.3526	0.132438	-383.701309	-383.695118	-383.694174	-383.731309	25.023
O          0.01160        1.46630        0.08750
C         -0.02390        0.06350       -0.04350
C         -1.40070       -0.56890       -0.00550
C         -2.05560       -0.50550       -1.37200
O         -1.69270        0.49690       -2.28730
C         -0.29280        0.34130       -2.55050
C          0.21740       -0.59120       -1.45200
C         -0.99210       -1.51670       -1.15930
H          0.92220        1.73620        0.24210
H          0.62540       -0.41810        0.69990
H         -1.96980       -0.79150        0.89030
H         -3.10050       -0.78410       -1.43810
H         -0.14100       -0.08430       -3.55340
H          0.17710        1.32840       -2.50120
H          1.19760       -1.02870       -1.63890
H         -1.05810       -2.59140       -1.25230
