18
gdb 14350	3.26768	2.02581	1.94837	0.9358	66.48	-0.2483	0.0821	0.3305	810.3928	0.155168	-384.93211	-384.925115	-384.92417	-384.963156	27.225
C          0.63650        1.30030        0.26240
C         -0.04600       -0.01740       -0.10680
C          0.58590       -0.72760       -1.32440
C          1.55060       -1.72360       -0.69820
O          2.79010       -1.13650       -0.22720
C          2.47420       -1.46260        1.14790
C          1.05110       -1.90860        0.75260
O          0.01830       -0.97470        0.96920
H          1.72160        1.18260        0.31840
H          0.41800        2.05940       -0.49690
H          0.26370        1.66280        1.22450
H         -1.11330        0.16940       -0.26800
H         -0.17390       -1.27250       -1.89440
H          1.09560       -0.03770       -2.00120
H          1.73580       -2.61400       -1.30730
H          3.11560       -2.26910        1.52620
H          2.53310       -0.59610        1.81390
H          0.71980       -2.88740        1.10540
