21
gdb 17073	5.96197	1.00622	0.96714	1.0237	79.8	-0.2296	0.0902	0.3198	1289.902	0.189635	-329.08282	-329.074675	-329.073731	-329.116013	30.579
C         -0.17790        1.65950        0.12680
C         -0.14410        0.14670       -0.00680
C          0.29200       -0.70840        1.21550
C         -0.82680       -1.72410        0.85760
C         -1.49490       -0.62390       -0.01220
N          1.16760        2.20530        0.27990
C          1.86430        2.55610       -0.95320
C          1.33740        3.61480       -0.04800
H         -0.70480        2.09910       -0.74280
H         -0.75330        1.93560        1.02030
H          0.44910       -0.12720       -0.88730
H          1.32280       -1.06750        1.24360
H          0.08390       -0.18590        2.15470
H         -0.44770       -2.54790        0.24580
H         -1.41290       -2.14610        1.67740
H         -2.26430       -0.08010        0.54690
H         -1.91320       -0.91560       -0.97890
H          2.92630        2.32970       -0.98280
H          1.33950        2.40580       -1.89620
H          0.46390        4.16870       -0.39000
H          2.00710        4.17570        0.59790
