12
gdb 3743	8.03971	2.09599	1.68027	3.0658	52.77	-0.227	-0.0003	0.2266	696.8324	0.091379	-356.693135	-356.6869	-356.685956	-356.723234	22.267
C         -0.06080        1.44580        0.05360
N         -0.00030        0.00480       -0.07660
C          0.07580       -0.74550       -1.21010
C          0.10520       -2.03550       -0.73070
O          0.17840       -3.18080       -1.43360
N          0.04790       -2.01450        0.61980
N         -0.01660       -0.76550        1.01680
H          0.83300        1.90930       -0.37350
H         -0.94750        1.84140       -0.44950
H         -0.11470        1.66910        1.11890
H          0.10100       -0.32530       -2.19950
H          0.17900       -3.89930       -0.78800
