17
gdb 16406	3.5455	2.20146	1.73705	3.9074	67.83	-0.2361	0.0362	0.2723	793.8521	0.146248	-363.897879	-363.891547	-363.890603	-363.928179	25.482
O         -0.00630       -0.04320        0.02270
C          0.00750        1.17180        0.01670
N         -1.13400        1.93190        0.04890
C         -1.14180        3.39010        0.04070
C          0.29890        3.90270       -0.00980
C          1.08930        3.13260       -1.10340
C          1.27310        2.01740       -0.03080
C          1.16030        3.14530        1.03820
H         -2.00400        1.42250        0.08020
H         -1.70140        3.76220       -0.82910
H         -1.64320        3.77240        0.94100
H          0.31290        4.99440       -0.01670
H          0.57400        2.87430       -2.03240
H          2.03840        3.62230       -1.33430
H          2.14680        1.36870       -0.05590
H          2.12250        3.63730        1.20000
H          0.70770        2.89830        2.00230
