21
gdb 10078	2.00332	1.74369	1.06581	3.5936	76.	-0.2482	0.0343	0.2825	1195.1449	0.18734	-366.304268	-366.294195	-366.293251	-366.340355	35.26
C         -0.21840        1.46480        0.38600
C         -0.05440       -0.04040        0.16490
C          0.63900       -0.40990       -1.15830
C          0.89130       -1.92420       -1.26470
C          1.69040       -2.33970       -2.50170
N         -0.12680        0.07620       -2.30480
C          0.33610        0.98700       -3.20250
O          1.42890        1.51300       -3.17700
H          0.75210        1.97150        0.38910
H         -0.82380        1.91880       -0.40390
H         -0.70810        1.66820        1.34310
H          0.53170       -0.47280        0.98470
H         -1.03630       -0.53390        0.20370
H          1.59620        0.11780       -1.22060
H          1.42070       -2.24200       -0.35850
H         -0.07480       -2.44930       -1.24900
H          1.84670       -3.42250       -2.52040
H          1.17120       -2.05950       -3.42280
H          2.67280       -1.85670       -2.51770
H         -1.05890       -0.28520       -2.44190
H         -0.41800        1.20440       -3.98620
