16
gdb 18105	4.50632	2.08363	1.5069	1.4075	74.3	-0.2149	-0.02	0.1949	821.3925	0.133005	-346.611321	-346.605183	-346.604239	-346.641437	24.429
C         -0.02750        1.49390        0.08420
O          1.32830        1.93400       -0.08660
C          2.01870        0.88830       -0.74590
C          3.45340        0.53460       -0.30400
C          3.42300       -0.98450       -0.40410
C          2.17090       -1.47630       -0.46920
C          1.23490       -0.36450       -0.42640
C          0.02890       -0.02170        0.02370
H         -0.39490        1.86770        1.04820
H         -0.67210        1.92490       -0.70240
H          2.02370        1.06580       -1.83710
H          4.23390        0.99540       -0.91640
H          3.61890        0.84990        0.73530
H          4.32320       -1.58810       -0.36210
H          1.90400       -2.52560       -0.47490
H         -0.77090       -0.66130        0.37250
