18
gdb 15820	6.34375	0.90428	0.85227	1.1914	69.53	-0.2447	-0.0103	0.2344	1358.0427	0.152337	-384.944341	-384.935407	-384.934463	-384.978763	31.444
O         -0.15150        1.44760        0.05410
C          0.02240        0.03840        0.00220
C         -1.36380       -0.58630        0.01970
C         -1.34460       -2.10250       -0.03090
O         -0.30510       -2.73170       -0.08020
C         -2.67260       -2.78180       -0.01710
C         -2.80050       -4.08020       -0.80210
C         -2.75960       -4.13000        0.68520
H          0.71940        1.85470        0.04310
H          0.55530       -0.27380       -0.90700
H          0.60420       -0.33290        0.85760
H         -1.90920       -0.26870        0.91880
H         -1.95740       -0.21110       -0.82500
H         -3.54330       -2.13740        0.02850
H         -3.74110       -4.25880       -1.31010
H         -1.90990       -4.39080       -1.33610
H         -1.84150       -4.47400        1.14740
H         -3.67110       -4.34400        1.23100
