20
gdb 19819	3.45524	2.02958	1.7395	0.2526	77.19	-0.23	0.0804	0.3105	862.0805	0.178718	-311.814801	-311.807798	-311.806854	-311.845483	28.852
C         -0.39810        1.55740       -0.02250
C          0.00480        0.08910        0.00990
C          1.04310       -0.48070       -1.02260
C          1.81130       -1.17930        0.14410
C          3.03380       -0.47770        0.78380
C          2.92270        1.01520        0.73770
C          2.09670        0.26850        1.75200
C          0.87620       -0.48610        1.17290
H          0.45980        2.22840        0.06770
H         -0.91630        1.79990       -0.95740
H         -1.08190        1.78960        0.80210
H         -0.90720       -0.51610       -0.04910
H          0.61260       -1.16730       -1.75580
H          1.61890        0.27180       -1.56840
H          1.88030       -2.26600        0.10140
H          3.97900       -0.96640        0.99060
H          3.76980        1.54210        1.16770
H          2.48800        1.53160       -0.11020
H          2.23250        0.46270        2.80990
H          0.35420       -1.07250        1.93120
