10
gdb 21386	5.73061	2.27085	1.62637	2.412	54.41	-0.2664	-0.0688	0.1976	678.8484	0.06324	-409.59246	-409.587259	-409.586315	-409.62163	19.775
N          0.01460        1.34680        0.00970
N          1.28040        1.82300        0.00010
C          2.10950        0.77470       -0.01390
C          1.34720       -0.41160       -0.01340
C          0.03120       -0.00880        0.00170
N         -0.77070       -1.10750        0.00310
N         -0.04880       -2.13990       -0.00980
O          1.37750       -1.74160       -0.02140
H         -0.75640        1.99170        0.02080
H          3.17570        0.92960       -0.02330
