15
gdb 16138	4.14084	1.80505	1.46975	2.8429	68.07	-0.2477	-0.0305	0.2172	852.6567	0.119658	-362.654347	-362.647719	-362.646775	-362.685107	25.471
O         -0.21940        0.05250        0.23870
C         -0.02960        1.20740       -0.05330
C          1.28810        1.86960       -0.06100
N          1.33840        3.33760        0.24810
C          1.62880        2.90360       -1.11080
C          3.11500        2.74520       -1.42370
C          3.56580        1.65850       -0.46740
C          2.56080        1.16210        0.25520
H         -0.87230        1.88270       -0.34150
H          0.38520        3.70260        0.28680
H          0.92820        3.15020       -1.90270
H          3.26970        2.45540       -2.47070
H          3.65490        3.68640       -1.26720
H          4.60340        1.35520       -0.38840
H          2.61680        0.37090        0.99030
