18
gdb 16963	3.37572	2.17666	2.01773	2.401	66.02	-0.2451	0.0867	0.3318	782.3624	0.156408	-384.95302	-384.946489	-384.945545	-384.983471	26.329
C         -0.16720        1.54110       -0.05940
C          0.03590        0.03760        0.03640
O          0.69220       -0.45270       -1.16420
C          1.79040       -1.22440       -0.70980
C          1.26070       -1.90060        0.55690
C          0.94500       -0.51460        1.16160
C          2.33900        0.12510        1.03700
O          2.82090       -0.37310       -0.23040
H          0.77770        2.06840       -0.20930
H         -0.81350        1.77110       -0.91120
H         -0.64960        1.92470        0.84620
H         -0.94990       -0.44620        0.10890
H          2.17840       -1.81800       -1.53560
H          0.37940       -2.52010        0.37970
H          2.02350       -2.46250        1.09950
H          0.50710       -0.48150        2.15920
H          2.32830        1.21870        1.02070
H          3.01010       -0.20140        1.84220
