16
gdb 10947	4.88343	1.28626	1.19402	3.6649	65.98	-0.2452	-0.0214	0.2238	1010.994	0.129111	-383.712347	-383.704705	-383.703761	-383.744526	28.466
O         -0.14080        1.44410        0.00950
C         -0.08080        0.06430        0.02630
C         -0.32750       -0.77750       -1.19080
C         -1.24780       -0.91330        0.00450
C         -0.56690       -1.79050        1.07330
C          0.61410       -0.74580        1.12370
C         -1.32000       -1.85150        2.37450
O         -1.57220       -2.86060        2.98100
H          0.56090        1.77510       -0.56180
H         -0.76610       -0.23300       -2.02110
H          0.34000       -1.58830       -1.47550
H         -2.31200       -0.72910       -0.07460
H         -0.30260       -2.80410        0.76130
H          1.61580       -1.13350        0.91510
H          0.63000       -0.20290        2.07300
H         -1.63880       -0.85310        2.75910
