16
gdb 6628	7.01137	0.76207	0.69627	2.3353	71.45	-0.2553	0.0155	0.2708	1595.0278	0.126922	-383.753971	-383.744076	-383.743132	-383.791786	31.746
C         -0.04810        1.44120        0.16240
C         -0.04700       -0.00650        0.01760
C         -0.05150       -1.20370       -0.10090
C         -0.01530       -2.64670       -0.25340
O         -1.33610       -3.17950       -0.00170
C         -1.43490       -4.52180       -0.11300
C         -2.84690       -4.97570        0.16760
O         -0.50720       -5.23650       -0.39840
H          0.64440        1.76430        0.94720
H          0.24690        1.93570       -0.76940
H         -1.04600        1.80560        0.42980
H          0.29830       -2.93830       -1.26180
H          0.69200       -3.10870        0.44410
H         -3.53920       -4.50080       -0.53330
H         -2.90430       -6.05930        0.07270
H         -3.14490       -4.67140        1.17480
