17
gdb 1124	4.72316	1.68356	1.45841	1.851	61.37	-0.2644	0.0201	0.2846	906.2239	0.145537	-346.908492	-346.899733	-346.898788	-346.942268	30.038
C         -0.03510        1.52310       -0.05980
C          0.00470        0.00050        0.01820
C         -1.37320       -0.64430       -0.01220
O          0.72160       -0.52840       -1.13010
C          2.06740       -0.56570       -1.05080
C          2.65600       -1.14580       -2.31580
O          2.70250       -0.18880       -0.09700
H          0.97610        1.93430       -0.02870
H         -0.52530        1.84890       -0.98300
H         -0.59590        1.92800        0.78850
H          0.55400       -0.30340        0.91370
H         -1.91100       -0.36910       -0.92490
H         -1.29350       -1.73410        0.02480
H         -1.96230       -0.31170        0.84760
H          2.36830       -0.53520       -3.17640
H          3.74130       -1.17870       -2.22950
H          2.26270       -2.15190       -2.48650
