16
gdb 7124	4.29176	0.97862	0.82168	4.4932	63.07	-0.2478	-0.0313	0.2166	1346.2314	0.12591	-420.884191	-420.874684	-420.87374	-420.920672	30.814
C         -0.54220        1.21990        0.67050
O         -0.78880       -0.16860        0.61090
C         -0.70110       -0.68880       -0.68940
C         -1.03520       -2.17880       -0.70310
O         -0.81890       -2.83790       -1.69250
C         -1.66370       -2.76070        0.55290
C         -1.91590       -4.25050        0.44210
O         -2.95610       -4.77520        0.74270
H         -0.63770        1.52140        1.71560
H          0.47010        1.46680        0.31680
H         -1.26760        1.78510        0.06580
H         -1.40800       -0.18790       -1.37460
H          0.30420       -0.56180       -1.12190
H         -0.98460       -2.56230        1.39410
H         -2.59390       -2.23500        0.79210
H         -1.05180       -4.84180        0.07510
