15
gdb 8396	4.11313	1.76167	1.5322	2.1692	61.71	-0.2486	0.0196	0.2682	844.1514	0.118691	-399.762578	-399.755275	-399.754331	-399.794751	27.284
N         -0.13010        1.19290        0.43180
C          0.00230       -0.05160       -0.09240
O          1.03140       -0.52020       -0.53880
C         -1.27890       -0.84200       -0.07970
C         -2.12280       -1.35190       -1.27780
C         -2.90000       -1.58710        0.03800
C         -1.61530       -2.14400        0.69400
O         -2.50900       -0.22350        0.48510
H          0.67320        1.79810        0.46740
H         -1.01890        1.50760        0.78320
H         -2.52260       -0.56990       -1.92370
H         -1.75080       -2.21990       -1.82440
H         -3.93940       -1.87590        0.18950
H         -1.20060       -3.07890        0.31380
H         -1.56950       -2.05770        1.77980
