14
gdb 9582	4.11315	1.42894	1.23705	3.164	64.32	-0.2887	-0.0665	0.2222	959.4247	0.105869	-378.720645	-378.712638	-378.711694	-378.753121	28.087
C          0.34430        1.61970       -0.30490
C         -0.03290        0.18980       -0.00400
N          1.02010       -0.82520       -0.04520
C          0.42920       -0.51780        1.25790
C          1.25600        0.17050        2.21870
N          1.88970        0.73760        3.00170
C         -1.39050       -0.27210       -0.45480
O         -1.67830       -1.43880       -0.57020
H          1.29720        1.87550        0.16090
H          0.44110        1.76910       -1.38490
H         -0.41920        2.30870        0.07100
H          0.60500       -1.69800       -0.37730
H         -0.26320       -1.23620        1.68810
H         -2.11810        0.53340       -0.68320
