19
gdb 10297	2.55695	1.58532	1.03734	3.4494	71.68	-0.2813	0.0282	0.3095	1146.594	0.163984	-365.082627	-365.073051	-365.072107	-365.116929	34.258
C         -0.08230        1.55600        0.08080
C         -0.02420        0.02390       -0.00060
C         -1.43820       -0.57220        0.02290
C          0.75850       -0.44430       -1.25890
C          2.21230        0.09230       -1.33960
O          2.90110       -0.37570       -2.47530
C          0.82430       -1.90790       -1.32900
N          0.94120       -3.05750       -1.38230
H          0.90480        2.00940        0.20380
H         -0.54100        1.98060       -0.82000
H         -0.69160        1.86190        0.93650
H          0.52000       -0.35000        0.87680
H         -2.02710       -0.21580       -0.83050
H         -1.41810       -1.66470       -0.01380
H         -1.96270       -0.27410        0.93570
H          0.22900       -0.10030       -2.15730
H          2.18370        1.17980       -1.43200
H          2.73760       -0.15530       -0.40410
H          2.99660       -1.33230       -2.39800
