21
gdb 1788	3.57463	1.93782	1.60298	0.1214	74.82	-0.2552	0.0874	0.3426	912.3929	0.193436	-274.985796	-274.976984	-274.97604	-275.018407	32.779
C          0.22130        1.52330        0.23370
C         -0.17840        0.09070       -0.14630
C          0.61920       -0.48810       -1.30790
C          0.40790        0.22060       -2.63560
C          2.00580       -1.03020       -1.02750
C          0.88390       -1.98100       -1.38130
C          0.36340       -2.99500       -0.38480
H          1.28500        1.57870        0.48920
H          0.03920        2.22850       -0.58290
H         -0.35070        1.87020        1.10010
H         -0.06230       -0.54710        0.73550
H         -1.24790        0.06770       -0.39810
H          0.72280        1.26910       -2.59350
H          0.98100       -0.25960       -3.43500
H         -0.64930        0.20340       -2.92810
H          2.79480       -0.85210       -1.75130
H          2.34650       -1.02790        0.00420
H          0.91830       -2.36810       -2.39790
H          0.41330       -2.63050        0.64500
H         -0.67850       -3.26600       -0.59130
H          0.95840       -3.91430       -0.42970
