16
gdb 10929	5.87841	1.36042	1.25995	2.1884	71.39	-0.2452	0.0464	0.2916	987.3282	0.128398	-346.536901	-346.529134	-346.52819	-346.568704	29.431
C          0.06990        1.57060        0.03620
C         -0.07710        0.08730        0.12240
C         -1.35920       -0.75670        0.00450
C         -0.68420       -1.83390        0.94620
C         -0.54220       -3.19470        0.46980
C         -0.42730       -4.32510        0.07690
C          0.57540       -0.93500        0.95990
O          0.98240       -0.73640       -0.39300
H          1.08560        1.86980        0.30750
H         -0.12730        1.92110       -0.98330
H         -0.63670        2.07180        0.70560
H         -2.24010       -0.30340        0.46440
H         -1.59450       -1.09190       -1.00690
H         -1.16760       -1.82140        1.92860
H         -0.31820       -5.32070       -0.27560
H          1.33740       -0.86790        1.72870
