20
gdb 20029	4.50124	1.07048	0.9478	1.3605	76.26	-0.2483	0.0787	0.3271	1267.3407	0.176709	-348.967189	-348.958462	-348.957518	-349.001078	32.212
O         -0.12590        1.40700       -0.50790
C          0.00070        0.12300        0.09330
C         -1.35460       -0.53130        0.07790
C         -1.83970       -1.26520       -1.14880
C         -1.53050       -2.03580        0.11240
C         -0.38540       -2.99900        0.17990
C         -0.04910       -3.69330        1.47840
C         -0.65680       -4.47550        0.34020
H          0.71860        1.85920       -0.42110
H          0.72960       -0.49560       -0.45220
H          0.36170        0.21000        1.13090
H         -2.10300        0.04240        0.61810
H         -2.87250       -1.14670       -1.45710
H         -1.13980       -1.36200       -1.97350
H         -2.39600       -2.37090        0.68050
H          0.46070       -2.75100       -0.45420
H          0.99420       -3.86120        1.72250
H         -0.67640       -3.48190        2.33830
H         -1.69120       -4.78970        0.43580
H         -0.02960       -5.17810       -0.19760
