17
gdb 9613	3.16534	1.51519	1.21468	4.028	69.46	-0.2921	-0.0003	0.2918	1038.2404	0.140011	-363.865771	-363.856954	-363.856009	-363.899276	31.442
C          0.23950        1.38690        0.31590
C         -0.33320        0.08750       -0.26550
C          0.52110       -0.48310       -1.38320
C          0.57090        0.29150       -2.68260
O          1.78420       -1.02430       -0.96130
C          0.80180       -1.94170       -1.44420
C          0.24850       -2.87370       -0.48510
N         -0.20600       -3.63470        0.25700
H          1.25840        1.22700        0.68050
H          0.26460        2.19320       -0.42340
H         -0.37170        1.72850        1.15560
H         -0.42260       -0.65770        0.53000
H         -1.34450        0.25890       -0.65380
H          0.95040        1.30300       -2.51160
H          1.22970       -0.19850       -3.40330
H         -0.42960        0.37500       -3.11870
H          1.02480       -2.39200       -2.41050
