19
gdb 1360	3.01164	2.26872	1.94217	1.3601	67.7	-0.2379	0.0772	0.3152	813.2486	0.169222	-310.91227	-310.903513	-310.902569	-310.944426	32.405
C         -0.21580        0.97940       -1.84540
C         -0.03480       -0.18860       -0.89940
C          1.32120       -0.61280       -0.33810
C          2.61930        0.09130       -0.66870
C          0.27260       -0.04490        0.57910
C          0.41610        1.30150        1.25310
O         -0.29180       -1.02230        1.42680
H          0.45870        1.81070       -1.62570
H         -0.02820        0.67470       -2.88130
H         -1.23900        1.36960       -1.79890
H         -0.69470       -1.02690       -1.11010
H          1.42660       -1.68860       -0.22660
H          2.50120        1.17240       -0.77680
H          3.36550       -0.07900        0.11520
H          3.03680       -0.28590       -1.60890
H          0.90140        2.04430        0.61690
H         -0.56820        1.70100        1.52910
H          1.00380        1.20040        2.17130
H         -1.20670       -0.76930        1.59580
