16
gdb 19189	3.61904	1.96602	1.74116	2.8116	64.3	-0.2265	-0.0199	0.2067	809.3368	0.131158	-383.725057	-383.718211	-383.717267	-383.755891	26.346
C         -0.10570        1.59900        0.04280
C          0.02180        0.08390       -0.00560
C          0.87430       -0.62030       -1.13470
C          2.25570        0.00630       -0.89410
O          2.30800        0.00500        0.56050
C          1.06380       -0.61550        0.92480
C          0.96520       -1.76830       -0.09930
O          0.84920       -2.95480       -0.10040
H          0.86930        2.08000        0.14280
H         -0.59420        1.98260       -0.85860
H         -0.71270        1.89900        0.90290
H         -0.95550       -0.40220        0.07550
H          0.52920       -0.75890       -2.15640
H          3.07500       -0.59780       -1.29990
H          2.35200        1.03170       -1.26600
H          0.97960       -0.70810        2.00440
