17
gdb 7997	3.17263	1.85029	1.36772	3.2876	65.59	-0.236	0.0364	0.2724	930.0245	0.142831	-401.044455	-401.036412	-401.035468	-401.076939	29.256
C         -0.02100        1.41760       -0.02690
N          0.00200       -0.02310       -0.09280
C         -1.20350       -0.82800       -0.08700
C         -0.71280       -2.23540       -0.47700
O         -0.87500       -2.33970       -1.88490
C          0.76530       -2.22510       -0.06190
C          1.16400       -0.74760       -0.08120
O          2.28830       -0.29100       -0.06160
H          1.01420        1.76330       -0.03690
H         -0.55520        1.84320       -0.88500
H         -0.50960        1.76920        0.89130
H         -1.68650       -0.82550        0.90130
H         -1.92990       -0.46970       -0.82420
H         -1.29130       -3.01300        0.03840
H         -0.44520       -3.15020       -2.17640
H          0.90390       -2.60770        0.95600
H          1.40650       -2.81090       -0.72480
