11
gdb 1009	9.37045	2.03398	1.67122	3.6066	62.77	-0.2204	-0.0156	0.2049	686.5481	0.080084	-302.30389	-302.298152	-302.297208	-302.333219	21.45
C          0.07410       -1.16610       -0.00470
C         -0.01620        0.03430        0.00330
C         -0.08320        1.44590        0.01210
N         -1.17370        2.19680        0.03050
C         -0.72890        3.48990        0.03200
C          0.64440        3.53540        0.01440
N          1.04660        2.22620        0.00180
H          0.13580       -2.22620       -0.01160
H         -1.41860        4.32000        0.04560
H          1.34880        4.35030        0.00990
H          1.99330        1.88490       -0.01240
