16
gdb 14467	3.84653	2.1624	2.12511	0.7075	62.07	-0.2197	0.0746	0.2942	723.076	0.132846	-383.729384	-383.723467	-383.722523	-383.758939	24.947
O         -0.07410        1.36550        0.07660
C          0.04980       -0.01400        0.05270
C          1.11810       -0.78860        0.82300
C          0.63960       -2.17940        0.35380
C         -0.85460       -2.17580        0.75980
C         -1.19580       -0.89090        0.01670
C         -0.22870       -0.88060       -1.15700
O          0.58390       -2.03720       -1.07990
H          0.66190        1.74220       -0.41890
H          2.13410       -0.56480        0.48210
H          1.05440       -0.65570        1.90620
H          1.24320       -3.04660        0.61250
H         -1.38690       -3.04960        0.37460
H         -0.99470       -2.10970        1.84220
H         -2.18590       -0.46200       -0.05040
H         -0.45080       -0.52760       -2.15410
