13
gdb 20521	5.05805	1.60252	1.22612	2.8941	60.79	-0.2565	-0.0527	0.2037	912.4895	0.096953	-394.80808	-394.801057	-394.800113	-394.839939	24.523
C         -0.05680        1.50150        0.00950
C          0.03040       -0.00880        0.00240
O          1.08460       -0.61000       -0.00880
C         -1.24330       -0.76510        0.00960
N         -2.45210       -0.18530        0.02180
N         -3.27730       -1.21310        0.02430
N         -2.72850       -2.42720        0.01470
C         -1.42590       -2.16370        0.00510
H          0.94990        1.91990        0.00270
H         -0.61880        1.85380       -0.86140
H         -0.60370        1.84630        0.89300
H         -4.27790       -1.08880        0.03300
H         -0.68670       -2.94700       -0.00420
