16
gdb 9837	3.94324	1.45177	1.17042	3.1869	62.27	-0.2599	-0.0278	0.2321	1012.9176	0.128085	-420.874041	-420.865692	-420.864748	-420.906903	30.806
O          0.13500        1.31720       -0.01990
C          0.06140       -0.07540       -0.06530
C         -1.38060       -0.54670        0.05460
O         -2.26930        0.27710        0.17400
C         -1.64870       -2.01240        0.00780
O         -0.53030       -2.84080       -0.13350
C         -2.86780       -2.52790        0.75590
C         -2.89410       -2.45020       -0.73810
H         -0.78450        1.61400        0.08050
H          0.48070       -0.48020       -0.99940
H          0.64750       -0.53590        0.74810
H         -0.15210       -2.99850        0.73850
H         -2.75950       -3.50590        1.21120
H         -3.43510       -1.79520        1.31760
H         -3.48300       -1.66710       -1.20010
H         -2.78790       -3.37090       -1.29910
