14
gdb 4741	5.19121	1.40984	1.11639	5.7099	70.63	-0.2377	-0.0562	0.1815	1012.5574	0.107755	-378.777177	-378.769832	-378.768888	-378.809143	26.128
C          0.01310        1.51770        0.00260
C          0.00360        0.02340       -0.02230
C         -0.13490       -0.81340       -1.11730
N         -0.07970       -2.08330       -0.62370
C          0.08820       -1.98780        0.73600
C          0.18490       -3.18990        1.56320
O          0.33230       -3.21270        2.76060
N          0.14020       -0.71980        1.11290
H          0.95320        1.89420        0.41820
H         -0.10870        1.93060       -1.00220
H         -0.79510        1.90170        0.63310
H         -0.26350       -0.61060       -2.16810
H         -0.14910       -2.93490       -1.15740
H          0.10770       -4.13310        0.96930
