15
gdb 23868	2.59223	1.82915	1.80455	3.0964	50.01	-0.2853	0.0583	0.3436	833.7344	0.11221	-531.318565	-531.309702	-531.308758	-531.351696	31.994
C         -0.03850        1.55540        0.02570
C         -0.00140        0.02230        0.04870
C          0.73750       -0.51900        1.27890
O         -1.31270       -0.52110       -0.03830
C          0.68780       -0.49090       -1.22790
F          1.95840       -0.04960       -1.28150
F          0.72380       -1.82650       -1.26960
F          0.06700       -0.06490       -2.33250
H          0.96880        1.97840        0.00230
H         -0.59160        1.90560       -0.84800
H         -0.53970        1.92200        0.92760
H          0.24080       -0.16480        2.18810
H          0.72350       -1.61060        1.27620
H          1.77490       -0.17630        1.30400
H         -1.80250       -0.22710        0.73630
