19
gdb 6778	7.47448	0.70993	0.65944	2.5774	69.69	-0.2467	0.0323	0.279	1688.8154	0.162961	-402.232238	-402.221922	-402.220978	-402.269877	34.384
C          0.03560        1.53370       -0.07670
C          0.00600        0.01510       -0.03310
O          0.67720       -0.48240       -1.17230
C          0.70700       -1.89250       -1.22500
C          1.45840       -2.29280       -2.48650
C          1.57760       -3.80630       -2.62490
N          2.09050       -4.23050       -3.81800
O          1.23920       -4.58210       -1.75110
H          1.06710        1.89750       -0.07920
H         -0.45880        1.90140       -0.98040
H         -0.47800        1.95090        0.79470
H          0.49080       -0.35560        0.88610
H         -1.03470       -0.35130       -0.01460
H          1.20590       -2.31330       -0.33960
H         -0.31260       -2.30790       -1.24100
H          0.95800       -1.87380       -3.36730
H          2.46330       -1.85270       -2.46580
H          2.44720       -3.59060       -4.50570
H          2.26600       -5.21480       -3.93580
