13
gdb 11764	4.93778	1.81947	1.64237	4.6716	62.28	-0.2632	-0.0272	0.236	774.7228	0.096316	-361.417912	-361.411901	-361.410957	-361.447904	23.658
N          0.06530       -1.15910       -0.01640
C          0.04290       -0.00440       -0.00110
C         -0.02760        1.44160        0.03120
C         -0.33340        2.26750        1.32690
C          0.43130        3.28220        0.42610
O          1.25060        2.15280       -0.04260
C         -0.54920        3.46040       -0.74890
C         -0.87310        2.19780       -1.02410
H         -1.37650        2.46020        1.57910
H          0.25420        1.92770        2.18130
H          1.00280        4.12440        0.80810
H         -0.87190        4.38640       -1.20010
H         -1.52650        1.75360       -1.75860
