17
gdb 8100	2.8795	2.05328	1.4988	3.9824	69.14	-0.2405	0.012	0.2526	898.9695	0.141622	-363.867785	-363.859932	-363.858988	-363.899564	29.732
C          0.08790        1.58720        0.05250
C          0.08490        0.07580        0.10730
C          1.30400       -0.80700       -0.21460
C          2.52730       -0.15460        0.40460
O          3.58390        0.25970        0.01930
N          1.95220       -0.18880        1.69080
C          0.69560       -0.77180        1.18720
C          0.00160       -1.84420        1.97050
H          1.00620        2.01080        0.46730
H          0.00310        1.93580       -0.98160
H         -0.75850        1.99660        0.61460
H         -0.82460       -0.37060       -0.29520
H          1.28170       -1.58530       -0.96490
H          1.99890        0.59420        2.33440
H         -0.47710       -1.43210        2.86670
H         -0.77960       -2.31700        1.36800
H          0.71210       -2.61220        2.29050
