18
gdb 13197	4.9188	1.30991	1.07268	3.6967	70.46	-0.2304	0.0617	0.2922	1118.7262	0.154601	-381.142593	-381.133843	-381.132898	-381.176596	30.2
C          0.07070        1.41330        0.08060
N          0.06700       -0.03480       -0.00440
C          0.66530       -0.66910       -1.07340
O          1.06150       -0.09110       -2.07280
N          0.77250       -2.03660       -0.92740
C         -0.13370       -2.95690       -0.21710
C          0.20780       -4.04440       -1.27180
C          0.97200       -2.94600       -2.06410
H          0.90920        1.80040        0.67510
H          0.16410        1.80090       -0.93420
H         -0.86500        1.77150        0.52100
H          0.00770       -0.54740        0.86070
H          0.15870       -3.17740        0.81630
H         -1.18070       -2.62790       -0.22490
H          0.84790       -4.83980       -0.88820
H         -0.64680       -4.48870       -1.78190
H          0.47380       -2.59990       -2.97570
H          2.02130       -3.15070       -2.29500
