16
gdb 19628	4.73704	1.98759	1.82548	1.8211	67.57	-0.2464	0.0981	0.3445	766.1479	0.131537	-346.521917	-346.51596	-346.515016	-346.551671	24.566
C         -0.08670        1.48060       -0.03720
O          1.11330        0.67640        0.01290
C         -0.14010        0.02170       -0.00420
C         -0.50500       -0.99210        1.05030
C         -1.68610       -1.79590        0.47690
C         -2.02030       -1.21140       -0.89790
C         -0.48600       -1.02730       -1.07000
C         -0.27700       -2.12330        0.06320
H         -0.29330        2.05700        0.86370
H         -0.24440        2.01490       -0.97370
H         -0.28500       -0.97010        2.10920
H         -2.33120       -2.36160        1.13740
H         -2.41610       -1.98050       -1.56680
H         -2.64280       -0.31120       -0.95820
H         -0.01010       -0.99460       -2.04710
H          0.32240       -3.01820        0.13160
