19
gdb 3013	5.45955	1.55048	1.37647	1.6625	67.32	-0.2612	0.0863	0.3475	947.125	0.170474	-310.903412	-310.895116	-310.894172	-310.936101	29.897
C          0.15900        1.47960       -0.05660
C         -0.06690       -0.03490       -0.07140
C         -1.54380       -0.47200        0.04870
C         -2.38120       -0.05350       -1.16600
C         -1.58650       -1.96950        0.30790
C         -2.63500       -2.88640       -0.15700
O         -1.36120       -2.84240       -0.80530
H          1.22830        1.71230       -0.07570
H         -0.29650        1.97420       -0.91980
H         -0.26280        1.93410        0.84730
H          0.35260       -0.46860       -0.98780
H          0.49510       -0.48220        0.75880
H         -1.96070        0.00820        0.94730
H         -2.07390       -0.61690       -2.05240
H         -3.44790       -0.23110       -1.00050
H         -2.26150        1.01140       -1.37870
H         -1.03920       -2.27320        1.20400
H         -2.83970       -3.79550        0.40770
H         -3.46920       -2.51500       -0.74770
