16
gdb 20162	3.73111	2.82311	2.1168	1.0296	69.92	-0.222	-0.0098	0.2122	687.4937	0.132609	-346.537608	-346.532061	-346.531117	-346.566799	23.478
C         -0.12500        1.37230        0.11320
C          1.45230        1.33810       -0.00210
O          2.14030        0.40340        0.87690
C          2.21090       -0.65070       -0.15350
C          1.31960       -1.87040        0.16890
C         -0.05140       -1.19720        0.20760
C         -0.01390       -0.03590       -0.45500
C          1.36560        0.23380       -1.06890
H         -0.59240        1.48480        1.09370
H         -0.49540        2.14280       -0.57350
H          1.98300        2.29090       -0.08560
H          3.25400       -0.87540       -0.39990
H          1.45340       -2.66190       -0.58250
H          1.55970       -2.30760        1.14410
H         -0.79110       -1.45230        0.95890
H          1.50370        0.35760       -2.14090
