13
gdb 657	5.24143	5.03103	2.79755	2.2186	49.97	-0.2453	0.0278	0.2732	479.7591	0.111001	-286.504546	-286.49943	-286.498486	-286.532964	18.772
C         -0.01760        1.52870       -0.00340
C          1.41560        2.04550        0.01510
O          2.14170        1.51030        1.13230
C          1.84390        0.23060        1.46970
N          0.94310       -0.53520        1.02300
C          0.01830       -0.00320        0.02400
H         -0.54620        1.90460        0.88000
H         -0.54200        1.90510       -0.88770
H          1.94220        1.76110       -0.90570
H          1.46990        3.13180        0.11880
H          2.52360       -0.10690        2.25050
H         -0.97650       -0.40970        0.23670
H          0.30370       -0.39890       -0.96030
