11
gdb 15454	3.49034	2.07452	1.42204	1.5276	56.47	-0.2749	-0.0389	0.236	807.316	0.071644	-397.398621	-397.392021	-397.391077	-397.429749	23.769
O         -0.04060        0.00740        0.00340
C         -0.00820        1.19190        0.01660
O         -1.15210        1.98660       -0.03340
C         -0.71080        3.28700       -0.01150
N          0.53190        3.52020        0.04090
C          1.17160        2.19120        0.06210
C          2.03340        1.98310        1.21510
C          2.73450        1.79690        2.17080
H         -1.49980        4.02840       -0.04560
H          1.75250        2.06410       -0.86170
H          3.35900        1.63350        3.01440
