14
gdb 21054	3.92024	1.86028	1.27432	4.1262	59.85	-0.209	0.0335	0.2425	899.454	0.109119	-412.071645	-412.064014	-412.06307	-412.103444	27.647
C         -0.04910        1.42470       -0.02840
N          0.01940       -0.01510        0.00670
N          0.11280       -0.74620       -1.16430
C          0.12020       -1.97460       -0.69510
O          0.18900       -3.03460       -1.51380
N          0.06240       -2.11490        0.65840
C          0.00490       -0.85210        1.06070
N         -0.13370       -0.43270        2.37250
H          0.94510        1.88010       -0.10660
H         -0.63960        1.72400       -0.89600
H         -0.54240        1.78140        0.87920
H          0.18300       -3.81510       -0.94750
H         -0.03060       -1.21100        3.00960
H          0.46870        0.33480        2.63820
