17
gdb 18707	3.33189	2.1898	1.53853	1.5706	68.85	-0.2272	0.0081	0.2353	839.3725	0.144019	-363.835756	-363.828829	-363.827885	-363.866614	27.403
O          0.49680        0.74760       -0.97440
C          0.02220       -0.17870        0.00250
C          0.58030        0.10700        1.36950
C         -0.10930       -0.09680        2.49000
C         -1.52110       -0.61990        2.48820
N         -2.26240       -0.47720        1.23040
C         -2.28700        0.85060        0.62370
C         -1.49860       -0.25160       -0.00140
H          0.11940        1.60690       -0.75430
H          0.41470       -1.14360       -0.34600
H          1.60170        0.47770        1.38850
H          0.34170        0.10180        3.45970
H         -1.51710       -1.68880        2.74550
H         -2.10760       -0.12640        3.27350
H         -3.24050        1.15230        0.19920
H         -1.73130        1.64740        1.11570
H         -1.91640       -0.74520       -0.87610
