16
gdb 17591	2.79105	2.46341	1.79181	0.5233	63.56	-0.2432	0.0625	0.3057	802.047	0.128118	-383.677996	-383.670505	-383.669561	-383.709288	28.481
C          0.04340        1.51590       -0.00160
C         -0.06300        0.03130        0.11020
O          1.06640       -0.78750       -0.25820
C          0.52360       -0.93720        1.07020
C          1.41930       -0.75580        2.25020
C         -0.72310       -1.81450        0.93610
O         -1.85800       -1.01160        1.30350
C         -1.30440       -0.85500       -0.01440
H          1.00030        1.86630        0.39400
H         -0.02650        1.83560       -1.04720
H         -0.76720        1.99440        0.55650
H          2.05570        0.12370        2.12170
H          0.82340       -0.63170        3.15960
H          2.07060       -1.62640        2.38470
H         -0.82930       -2.89150        0.97990
H         -1.95560       -1.03270       -0.86140
