16
gdb 4848	6.49677	1.30674	1.10562	1.886	69.46	-0.1917	0.0352	0.2269	1075.6951	0.13118	-379.962518	-379.954429	-379.953485	-379.995046	28.702
C         -0.14310        1.36100        0.00110
N          0.10150       -0.07240       -0.00230
C          0.70700       -0.63040        1.08680
N          1.34920       -0.03260        2.04330
C          1.81130       -1.09120        2.82880
C          1.41480       -2.27370        2.31320
C          1.57130       -3.70120        2.67870
O          0.68520       -1.98310        1.16330
H          0.79560        1.87990        0.20420
H         -0.50550        1.65820       -0.98530
H         -0.87120        1.67230        0.76280
H         -0.61330       -0.65090       -0.41650
H          2.39580       -0.91640        3.71890
H          0.60390       -4.18710        2.85400
H          2.08580       -4.26990        1.89490
H          2.16020       -3.77900        3.59580
