20
gdb 6704	5.8065	0.80567	0.73982	1.1465	78.6	-0.255	0.0339	0.2889	1558.145	0.173376	-348.964758	-348.954679	-348.953735	-349.000241	35.523
C         -0.02940        1.52170        0.00380
C         -0.00970       -0.01150        0.03010
C          0.76230       -0.54960        1.24090
C         -1.43650       -0.55600       -0.00320
O         -1.39080       -1.96680       -0.10780
C         -2.67580       -2.55210       -0.11150
C         -2.56600       -4.00100       -0.22510
C         -2.50460       -5.19650       -0.31790
H          0.98870        1.92280       -0.00500
H         -0.54800        1.90530       -0.88150
H         -0.53470        1.92530        0.88940
H          0.48540       -0.37010       -0.88210
H          0.74740       -1.64160        1.25660
H          1.80500       -0.21660        1.22030
H          0.31690       -0.19090        2.17720
H         -1.97840       -0.25860        0.91300
H         -1.98950       -0.13130       -0.85880
H         -3.22210       -2.29350        0.81230
H         -3.27740       -2.16010       -0.95020
H         -2.44290       -6.25340       -0.40040
