17
gdb 11900	4.67811	1.60372	1.34395	1.3577	69.73	-0.2297	0.031	0.2607	952.0884	0.14226	-363.875341	-363.867825	-363.86688	-363.907355	28.174
C         -0.14780        1.43620        0.11120
C          0.01780       -0.03600       -0.04550
N         -0.18270       -0.71230       -1.10320
C          0.11140       -2.11100       -0.76620
C          0.52020       -2.06940        0.71070
C          0.15810       -3.07780        1.75130
C          1.61040       -2.87060        1.34340
O          0.42720       -0.68980        1.08070
H          0.79840        1.89440        0.41590
H         -0.47750        1.86920       -0.83250
H         -0.88190        1.65460        0.89310
H         -0.77410       -2.73450       -0.93910
H          0.91050       -2.49430       -1.41220
H         -0.14260       -2.70530        2.72410
H         -0.35140       -3.98070        1.42950
H          2.09790       -3.63120        0.74170
H          2.25720       -2.36290        2.05020
