18
gdb 9880	5.17653	0.98224	0.92411	2.0185	74.12	-0.2407	0.0593	0.3	1277.7399	0.150675	-347.753754	-347.74453	-347.743585	-347.787936	33.602
O         -0.05780        1.42580       -0.21200
C         -0.01350        0.02730       -0.05870
C          1.10340       -0.53510       -0.90700
C          2.48810       -0.00680       -0.47390
C          3.57260       -0.52620       -1.29620
C          4.44730       -0.97270       -1.98990
C         -0.33370       -0.58900        1.27730
C         -1.29500       -0.74280        0.10570
H         -0.62970        1.79800        0.46560
H          1.09030       -1.62760       -0.84970
H          0.92750       -0.26530       -1.95410
H          2.47360        1.08760       -0.51720
H          2.66410       -0.27010        0.57710
H          5.22970       -1.35580       -2.59640
H          0.22780       -1.45780        1.60510
H         -0.63030        0.07140        2.08730
H         -2.21730       -0.17150        0.13790
H         -1.39100       -1.71670       -0.36270
