15
gdb 8642	2.50009	1.83446	1.4471	3.1533	67.64	-0.2845	-0.0071	0.2774	939.0997	0.115028	-362.618577	-362.609466	-362.608522	-362.651967	32.19
C         -0.07290        1.40700        0.06450
O          0.04260       -0.00870        0.01170
C          0.68770       -0.54940       -1.13130
C          2.16880       -0.11970       -1.24450
C          0.59990       -2.00960       -1.00630
C          0.56920       -3.20510       -0.91480
C         -0.03240       -0.13550       -2.37170
N         -0.58120        0.22570       -3.32200
H          0.89870        1.89900        0.19660
H         -0.56240        1.80870       -0.83170
H         -0.69550        1.61910        0.93530
H          2.67710       -0.38660       -0.31550
H          2.64500       -0.63970       -2.07790
H          2.25090        0.95560       -1.41400
H          0.52530       -4.26360       -0.83190
