20
gdb 12851	2.81165	2.26747	1.75532	1.5041	73.61	-0.2472	0.0835	0.3307	863.195	0.178717	-349.006406	-348.998952	-348.998008	-349.038114	29.188
C         -0.24030        1.51350        0.10570
C          0.03590        0.02300       -0.00530
C         -1.17700       -0.92170        0.26840
C         -0.41340       -1.58300        1.44760
C          0.82420       -0.68980        1.16070
C          1.98260       -1.38030        0.43920
O          1.54290       -1.56290       -0.90380
C          0.85030       -0.36970       -1.24640
H          0.68880        2.09480        0.09100
H         -0.86470        1.86310       -0.72570
H         -0.76990        1.75170        1.03410
H         -2.09320       -0.39710        0.55270
H         -1.41020       -1.59890       -0.55770
H         -0.86600       -1.41210        2.42720
H         -0.23220       -2.65570        1.33680
H          1.15890       -0.06100        1.98860
H          2.88540       -0.74650        0.46460
H          2.23880       -2.36440        0.84280
H          0.23720       -0.57950       -2.12820
H          1.56600        0.43190       -1.50110
