17
gdb 13787	3.70748	1.39001	1.08032	4.0789	66.57	-0.2537	0.0013	0.2549	1094.8886	0.140338	-400.997838	-400.988882	-400.987938	-401.032209	31.039
C         -0.10850        1.33130        0.05220
C          0.02620       -0.17610       -0.00670
O         -0.26970       -0.91910        0.90450
N          0.60750       -0.66960       -1.17110
C          0.19670       -0.49100       -2.54770
C          0.14360       -1.83950       -1.88370
C          1.16250       -2.93000       -2.10230
O          1.27260       -3.74720       -0.95360
H          0.79960        1.81880       -0.31260
H         -0.93600        1.65940       -0.58710
H         -0.31490        1.63450        1.07830
H         -0.75160        0.00410       -2.74600
H          0.99050       -0.25860       -3.25360
H         -0.84440       -2.19870       -1.59760
H          0.85380       -3.58520       -2.92450
H          2.12560       -2.47090       -2.37760
H          1.29810       -3.16260       -0.18590
