19
gdb 13620	2.59259	1.65048	1.3107	3.2225	67.62	-0.2412	0.0612	0.3025	1023.7559	0.165391	-402.165126	-402.156422	-402.155478	-402.198203	32.646
C          1.02050        1.62840       -0.01520
C          0.44940        0.23330        0.06610
N          1.37210       -0.84490        0.47100
C          0.23490       -0.48640        1.35240
C          0.51840        0.09590        2.74630
O         -0.46890       -0.35130        3.66990
C          1.92840       -0.22670        3.27070
O          2.95720        0.29400        2.46120
H          1.75220        1.79490        0.77870
H          1.52000        1.78260       -0.97740
H          0.22530        2.37640        0.07460
H         -0.25280       -0.01700       -0.72770
H          1.18960       -1.70710       -0.03270
H         -0.60290       -1.18120        1.37200
H          0.40300        1.18420        2.71960
H         -0.29850       -1.28250        3.85330
H          2.03310        0.21260        4.26790
H          2.01420       -1.32390        3.38490
H          2.83990       -0.14160        1.59920
