20
gdb 19904	4.37113	1.44412	1.3052	0.2243	78.05	-0.2032	0.0799	0.2831	1034.9747	0.177795	-311.788593	-311.781025	-311.780081	-311.820617	30.02
C         -0.59840        1.53820       -0.37200
C          0.01370        0.21910        0.11640
C          0.77890       -0.49300       -1.00620
C          2.10810       -1.21080       -1.00420
C          2.35590       -2.25720        0.11830
C          1.23660       -2.43220        1.10900
C          1.08670       -2.99130       -0.28030
C          0.83220       -1.94890       -1.40510
H          0.17720        2.22270       -0.73320
H         -1.29930        1.36620       -1.19630
H         -1.14380        2.04460        0.43040
H          0.68100        0.42930        0.95900
H         -0.78740       -0.42250        0.49840
H          0.72800        0.09440       -1.92510
H          2.91780       -0.89050       -1.64890
H          3.33950       -2.67380        0.29340
H          1.44380       -3.19560        1.85500
H          0.64390       -1.61450        1.49080
H          0.95720       -4.05170       -0.45460
H          0.53640       -2.26860       -2.39730
