19
gdb 6387	4.56844	0.95356	0.92261	4.4202	68.33	-0.2448	0.0337	0.2785	1303.839	0.163224	-402.235132	-402.224892	-402.223948	-402.271306	35.308
C          0.29490        1.65250       -0.08580
C          0.03650        0.14160       -0.04750
C          0.60910       -0.55710       -1.28020
O         -0.01430       -0.01220       -2.43320
C          0.59150       -0.50220        1.22990
C         -0.18600       -0.08670        2.47990
N          0.54330       -0.07980        3.63430
O         -1.37180        0.18140        2.46210
H          1.36980        1.86910       -0.03070
H         -0.08570        2.07790       -1.01650
H         -0.19920        2.15210        0.75160
H         -1.04670       -0.02230       -0.04590
H          1.70310       -0.41310       -1.31590
H          0.42440       -1.64170       -1.20760
H          0.38980       -0.40730       -3.21060
H          0.51300       -1.59650        1.16430
H          1.65890       -0.27480        1.34890
H          1.53480       -0.23810        3.64790
H          0.07930        0.17710        4.49010
