19
gdb 10334	2.27891	1.84427	1.19482	3.3453	68.73	-0.2432	-0.0288	0.2144	1055.6281	0.163014	-402.179376	-402.169861	-402.168916	-402.214081	33.603
C         -0.13840        1.55830        0.08030
N          0.02390        0.12410       -0.15500
C          1.02070       -0.42420        0.76320
C         -1.24370       -0.61320       -0.10410
C         -2.17080       -0.13740       -1.24800
O         -1.49190       -0.14440       -2.48530
C         -1.00030       -2.10340       -0.32420
O         -1.57540       -2.96980        0.28090
H          0.84320        2.03830        0.03220
H         -0.76690        2.01300       -0.68810
H         -0.57900        1.78170        1.06830
H          0.72420       -0.32520        1.82250
H          1.19320       -1.48450        0.56010
H          1.97020        0.10070        0.62450
H         -1.77050       -0.50340        0.86010
H         -3.02640       -0.81700       -1.32380
H         -2.57230        0.85860       -1.00650
H         -0.57610        0.09170       -2.27940
H         -0.28000       -2.33620       -1.13800
