11
gdb 21545	3.58703	2.01029	1.28973	5.2248	61.82	-0.2429	-0.0601	0.1828	843.1489	0.073552	-393.57846	-393.571822	-393.570878	-393.609334	24.145
N          0.06930        1.44490        0.17120
C          0.02270        0.07570        0.04460
C         -1.06650       -0.76110        0.00750
O         -0.65060       -2.06130       -0.04340
N          0.71750       -2.08360       -0.04900
C          1.11790       -0.83760        0.00560
C         -2.44260       -0.47330        0.00940
N         -3.56310       -0.17430        0.00730
H          0.87970        1.89350       -0.22830
H         -0.78780        1.93220       -0.04780
H          2.17570       -0.61600        0.01740
