14
gdb 21314	7.30185	1.16907	1.05473	2.6375	59.86	-0.2751	-0.0308	0.2443	1085.6971	0.107287	-415.84114	-415.833706	-415.832762	-415.874209	24.985
C          0.49700        1.37990        0.01920
O          0.71830       -0.01290       -0.04180
C          0.07050       -0.61210       -1.13610
C          0.30840       -2.08590       -1.09180
N          0.75900       -2.84840       -2.04360
C          0.72660       -4.08460       -1.44560
N          0.29410       -4.09690       -0.21540
O          0.00510       -2.75000        0.02840
H          0.87970        1.89240       -0.87660
H         -0.57330        1.61590        0.12380
H          1.03080        1.75000        0.89650
H         -1.01590       -0.41860       -1.10490
H          0.44910       -0.24240       -2.09970
H          1.03760       -4.99350       -1.93970
