13
gdb 7731	3.46307	1.99509	1.30844	1.7614	55.9	-0.2692	-0.0359	0.2333	856.2898	0.096947	-435.800529	-435.793889	-435.792945	-435.831692	24.287
O         -0.02110       -0.05830       -0.06380
C         -0.04780        1.14500        0.01950
C         -1.33320        1.96460        0.05360
O         -1.17060        3.22150        0.67140
C         -0.16250        3.99810        0.06430
C          1.19190        3.29850        0.03090
O          2.24610        3.88040       -0.04320
N          1.11340        1.90990        0.06460
H         -1.69980        2.06470       -0.98280
H         -2.07690        1.40610        0.62390
H         -0.42850        4.27310       -0.97120
H         -0.05580        4.91720        0.64220
H          1.99200        1.40430        0.03580
