18
gdb 5828	2.8954	1.66808	1.38222	2.7488	74.38	-0.258	-0.0555	0.2025	989.1757	0.149584	-347.794788	-347.785173	-347.784229	-347.828725	34.984
C         -0.02450        1.55070        0.02750
C          0.00250        0.01720        0.00380
C          0.76190       -0.52830        1.23290
C         -1.43500       -0.54760       -0.01060
C          0.72510       -0.45270       -1.26690
O          1.18430        0.30510       -2.09370
C          0.84500       -1.89560       -1.45300
C          0.95610       -3.08170       -1.62840
H          0.98710        1.96420        0.02300
H         -0.54550        1.95060       -0.84610
H         -0.53850        1.90000        0.92860
H          0.24750       -0.22130        2.14920
H          0.81320       -1.62040        1.22170
H          1.78390       -0.13790        1.27290
H         -2.00050       -0.17060       -0.86870
H         -1.43710       -1.64020       -0.05300
H         -1.95960       -0.24160        0.90020
H          1.06050       -4.12650       -1.79450
