18
gdb 13541	2.79964	1.75636	1.21318	4.1913	72.65	-0.2467	0.0301	0.2768	1028.0451	0.152546	-343.970808	-343.962001	-343.961057	-344.004209	31.786
C         -0.54650        0.81810       -2.50650
C         -0.16430       -0.30760       -1.53370
C          0.84830        0.15890       -0.57050
N          1.65620        0.51770        0.17310
N         -1.35390       -0.74220       -0.80250
C         -2.14810       -1.81190       -1.40840
C         -1.38190       -2.06060       -0.15420
C         -0.19900       -3.00400       -0.12120
H          0.33270        1.18120       -3.04420
H         -1.27020        0.43700       -3.23180
H         -1.00160        1.64660       -1.96020
H          0.30460       -1.12110       -2.11180
H         -3.22460       -1.66610       -1.39930
H         -1.76220       -2.27780       -2.31550
H         -1.93730       -2.02900        0.78150
H          0.28210       -3.11490       -1.09640
H          0.55530       -2.66620        0.59650
H         -0.53510       -3.99820        0.19050
