16
gdb 19863	4.15421	2.23692	1.94254	1.3635	62.63	-0.2551	0.0815	0.3366	733.6	0.132917	-383.702353	-383.69639	-383.695446	-383.732342	23.759
C          0.00440        1.48670       -0.08270
C          1.32190        0.78370        0.04360
C         -0.00480       -0.00590        0.05190
C          0.37880       -0.66810       -1.27900
O         -0.31240       -0.24180       -2.44440
C          0.67700        0.32290       -3.28460
O          1.65290        0.92780       -2.45670
C          1.70870        0.12330       -1.28730
H         -0.31130        2.02640        0.80370
H         -0.27850        1.95220       -1.02060
H          2.00720        0.96790        0.86060
H         -0.48600       -0.51590        0.87620
H          0.46100       -1.75850       -1.23730
H          1.13840       -0.45900       -3.91380
H          0.21650        1.09000       -3.91370
H          2.62830       -0.46870       -1.25080
