16
gdb 9528	2.84446	1.84785	1.55213	2.9613	60.34	-0.2682	-0.0071	0.2611	894.4808	0.129005	-420.900687	-420.892377	-420.891433	-420.933404	29.788
C          0.01690        1.60250       -0.00930
C          0.08580        0.07290        0.01940
C          0.74690       -0.51950       -1.22430
O          2.06180       -0.03760       -1.29030
C          0.51100       -2.04110       -1.43470
O         -0.37060       -1.75500       -2.56740
C         -0.11340       -0.40740       -2.51060
O         -0.47130        0.43630       -3.26810
H          1.01940        2.03050       -0.07680
H         -0.55930        1.95380       -0.87010
H         -0.45980        1.98100        0.89930
H          0.66360       -0.26750        0.88750
H         -0.91870       -0.35480        0.11660
H          2.41580       -0.18240       -2.17420
H          1.39340       -2.59840       -1.75810
H         -0.02370       -2.57780       -0.64890
