13
gdb 14586	19.05494	0.58415	0.57076	1.8795	70.7	-0.2784	-0.0746	0.2038	1760.8843	0.093576	-361.454917	-361.446212	-361.445268	-361.490074	27.927
O         -0.09480       -0.05620        0.00270
C         -0.02120        1.15010        0.00730
C          1.21790        1.88890        0.00130
C          2.24570        2.52260       -0.00560
C          3.47750        3.29410       -0.01330
C          3.21150        4.82200       -0.00270
C          4.45480        5.58860       -0.01080
N          5.44950        6.17600       -0.01710
H         -0.92850        1.78710        0.01660
H          4.08740        3.02250        0.85610
H          4.07060        3.03180       -0.89690
H          2.61310        5.10130       -0.87550
H          2.63000        5.09210        0.88430
