12
gdb 41	28.29567	4.14901	3.88349	1.0363	39.34	-0.2503	0.0925	0.3428	368.9331	0.107895	-194.254127	-194.248585	-194.247641	-194.281899	17.888
C         -0.00520        1.50870        0.03310
C          0.01320       -0.01040        0.01990
O          0.69760       -0.46340        1.16870
C          0.76690       -1.86510        1.24600
H          1.01450        1.90420        0.03000
H         -0.52990        1.89180       -0.84730
H         -0.51260        1.87810        0.92880
H         -1.01600       -0.41000        0.00710
H          0.51090       -0.38370       -0.89220
H         -0.23420       -2.32450        1.28980
H          1.30130       -2.29850        0.38490
H          1.30990       -2.11810        2.16010
