19
gdb 12691	3.15268	1.93234	1.27277	3.4932	72.85	-0.2339	0.0366	0.2706	990.3921	0.16653	-365.122338	-365.113938	-365.112994	-365.155053	30.565
C         -0.13100        1.56090        0.00100
C          0.09420        0.05190       -0.01380
C          0.88910       -0.51220       -1.20360
C          1.59930       -1.75310       -0.62620
N          1.72630       -1.43500        0.78490
C          2.50520       -2.23600        1.69760
C          0.88530       -0.43880        1.20650
O          0.77800       -0.03690        2.34840
H          0.81600        2.09900       -0.11450
H         -0.79870        1.87120       -0.80850
H         -0.57110        1.86080        0.95540
H         -0.88110       -0.45290        0.04750
H          0.26910       -0.75490       -2.06920
H          1.63690        0.22130       -1.52420
H          1.00820       -2.67100       -0.77290
H          2.58340       -1.92450       -1.07760
H          3.56390       -2.24300        1.41150
H          2.40110       -1.79780        2.69190
H          2.15050       -3.27520        1.72370
