18
gdb 14430	4.02027	2.17778	1.74421	1.1013	78.92	-0.2043	-0.0273	0.177	810.2867	0.154345	-310.572017	-310.565318	-310.564374	-310.602236	27.473
C         -0.02870        1.45720       -0.06900
C         -0.00370       -0.05070       -0.03840
C          0.55670       -0.89760       -1.25050
C         -0.24310       -2.01330       -0.57030
C          0.42980       -2.77430        0.31630
C          0.25910       -2.19320        1.71640
C         -0.29510       -0.80650        1.33420
C         -1.15840       -0.99720        0.13820
H          0.96790        1.87840        0.10680
H         -0.37530        1.82120       -1.04350
H         -0.70030        1.86240        0.69460
H          0.14250       -0.47900       -2.17670
H          1.63480       -1.05320       -1.35950
H          1.35220       -3.28480        0.05200
H         -0.43060       -2.70310        2.40550
H          1.24030       -2.17590        2.20710
H         -0.59770       -0.11670        2.12060
H         -2.22300       -0.84470        0.01060
