14
gdb 18469	4.24898	1.4635	1.38405	3.3391	57.37	-0.2755	-0.0063	0.2693	905.9634	0.10685	-419.660501	-419.653387	-419.652443	-419.692441	25.977
O          0.12210        1.27760       -0.29230
C          0.04730       -0.03790        0.22830
C         -1.35830       -0.59510        0.12310
C         -1.91330       -1.23690       -1.09660
O         -0.86420       -1.93400       -1.82250
C         -0.70940       -2.81820       -0.75190
O         -0.03160       -3.79030       -0.71780
C         -1.70100       -2.09880        0.12600
H          0.01700        1.21830       -1.24780
H          0.76560       -0.70940       -0.25810
H          0.32840        0.03630        1.28330
H         -2.09950       -0.02010        0.67560
H         -2.81080       -0.99070       -1.64590
H         -2.38750       -2.55170        0.82590
