14
gdb 3378	5.12334	2.34788	2.1437	4.246	60.97	-0.287	0.0317	0.3186	653.3466	0.115172	-287.426878	-287.42091	-287.419966	-287.456595	22.519
N          0.06830       -1.14600        0.03010
C          0.05290        0.01110        0.03630
C          0.05320        1.44990        0.05720
C          0.48520        2.24830        1.27320
C          1.59910        1.51970        2.03410
C          2.46980        1.53840        0.73190
C          1.33130        2.26640        0.00770
H         -0.77370        1.89310       -0.48930
H         -0.17650        3.00650        1.67400
H          2.03060        2.13330        2.82680
H          1.33910        0.54020        2.44350
H          3.35900        2.16180        0.84000
H          2.76170        0.57080        0.31590
H          1.43860        3.04120       -0.74170
