15
gdb 10093	2.30035	1.71695	1.05138	2.8285	62.82	-0.2704	-0.0285	0.2419	1088.6831	0.116224	-436.946861	-436.937752	-436.936808	-436.981639	30.267
C         -2.06260        0.37160       -1.32850
N         -1.15330       -0.68600       -0.92220
C          0.09170       -0.57470       -1.07690
C          1.01460       -1.69030       -0.63300
O          1.76500       -1.35290        0.52970
O          0.64890        0.54030       -1.69690
C          1.94410        0.93720       -1.48170
O          2.41920        1.81950       -2.12590
H         -2.72440        0.59900       -0.48630
H         -1.57310        1.28960       -1.66640
H         -2.69940       -0.00970       -2.13440
H          0.39010       -2.57420       -0.47250
H          1.75050       -1.91490       -1.41180
H          1.13820       -1.22290        1.25040
H          2.43930        0.38770       -0.67000
