16
gdb 2157	3.40428	3.10914	1.93664	3.015	61.24	-0.254	0.0303	0.2843	703.3651	0.13862	-325.805781	-325.799054	-325.79811	-325.836428	24.931
C          0.32050        1.53900       -0.03640
C         -0.06620        0.05210        0.01690
C          0.49060       -0.78080       -1.15300
C          1.82040       -1.29690       -0.58670
O          1.61410       -1.40560        0.83110
C          0.56190       -0.62540        1.22360
N          0.18200       -0.48350        2.41940
H          1.40430        1.66940       -0.12890
H         -0.15250        2.02810       -0.89370
H         -0.00170        2.04400        0.87730
H         -1.15240       -0.02660        0.09580
H         -0.17250       -1.62230       -1.37450
H          0.62430       -0.20370       -2.07100
H          2.10860       -2.28220       -0.96030
H          2.64710       -0.59970       -0.77230
H          0.77960       -1.01830        3.05250
