14
gdb 3654	3.55692	3.39488	1.77537	4.6004	59.43	-0.2382	0.0054	0.2436	697.4367	0.114074	-320.773105	-320.765963	-320.765019	-320.805258	24.383
C          0.13510        1.54910        0.10740
C          0.04590        0.06590       -0.02050
C         -0.05870       -0.78080       -1.10590
C         -0.12360       -0.46580       -2.56510
N         -0.11100       -2.06790       -0.64630
N         -0.04660       -2.07190        0.65250
N          0.04610       -0.78540        1.03820
H          0.96430        1.85310        0.75570
H          0.29780        2.00050       -0.87380
H         -0.78400        1.98120        0.52020
H          0.46500        0.42250       -2.81400
H          0.26550       -1.30850       -3.14120
H         -1.15190       -0.28460       -2.89930
H          0.11840       -0.57080        2.02020
