17
gdb 20975	4.60546	1.62781	1.22991	1.3883	71.68	-0.1834	0.0355	0.2189	975.9484	0.143754	-360.053276	-360.045254	-360.044309	-360.085775	29.174
C          0.01650        1.39950        0.08040
N         -0.01120       -0.00860       -0.26160
C          1.18780       -0.76120        0.06530
C         -1.22050       -0.67130       -0.11120
N         -1.26220       -1.99860        0.03070
N         -2.58710       -2.28800        0.07920
C         -3.37090       -1.19350       -0.00530
C         -2.52930       -0.11010       -0.12810
H          0.97370        1.82340       -0.23590
H         -0.77320        1.93700       -0.45110
H         -0.10370        1.59170        1.16060
H          1.30860       -0.92830        1.14850
H          1.14760       -1.73760       -0.41890
H          2.06130       -0.21480       -0.30210
H         -2.86740       -3.24560        0.19220
H         -4.44740       -1.25930        0.02630
H         -2.81910        0.92250       -0.21830
