14
gdb 2005	6.19821	2.0418	2.04169	4.2071	62.9	-0.3107	0.0253	0.3361	678.8012	0.115732	-287.407788	-287.40215	-287.401205	-287.437115	21.862
N          0.01980       -1.10490       -0.00460
C          0.00230        0.05150        0.00220
C         -0.01970        1.49320        0.01050
C         -0.64350        2.42230        1.10100
C         -0.04830        3.37310        0.02140
C          1.21000        2.45690        0.00150
C         -0.66900        2.43440       -1.05460
H         -1.73160        2.39220        1.19040
H         -0.15390        2.41100        2.07730
H         -0.06480        4.46130        0.02770
H          1.83200        2.44810        0.89930
H          1.81090        2.45820       -0.91050
H         -0.20220        2.43410       -2.04190
H         -1.75900        2.40510       -1.11890
