21
gdb 10333	2.42949	1.60034	1.30244	3.6951	75.92	-0.2386	0.0319	0.2706	1095.4123	0.187311	-366.29868	-366.288904	-366.28796	-366.333053	35.272
C         -0.22960        1.49960       -0.06370
C          0.13920        0.01370       -0.01000
N          0.81320       -0.47100       -1.20830
C          2.13570       -0.78560       -1.17130
O          2.79920       -1.20810       -2.09920
C          0.01730       -0.65350       -2.44160
C          0.52150        0.23180       -3.58930
C         -0.06480       -2.13360       -2.84110
H          0.66640        2.11690       -0.17890
H         -0.90110        1.71720       -0.89990
H         -0.73850        1.79670        0.85880
H          0.80160       -0.16920        0.84210
H         -0.76180       -0.58990        0.16040
H          2.57050       -0.61230       -0.16560
H         -0.99190       -0.31970       -2.17710
H         -0.14310        0.13310       -4.45350
H          0.53940        1.28460       -3.29150
H          1.52930       -0.06360       -3.88410
H         -0.46080       -2.73810       -2.01900
H         -0.73110       -2.25140       -3.70150
H          0.92390       -2.51070       -3.10690
