18
gdb 19590	2.98033	2.82718	2.04393	2.0014	71.14	-0.1942	0.0828	0.2771	749.8104	0.156131	-343.899697	-343.893184	-343.89224	-343.930128	26.552
C         -0.02220        1.54560       -0.09070
N         -0.04500        0.09120        0.04650
C         -1.18800       -0.70690        0.53970
C         -0.16400       -1.88980        0.59080
C          0.75060       -0.69260        1.01570
C          0.13880       -0.39690        2.41870
N         -0.64890        0.85590        2.48330
C         -1.29960       -0.40750        2.06560
H          0.71400        2.00430        0.57420
H          0.22970        1.80780       -1.12760
H         -0.98850        1.99190        0.15750
H         -2.09880       -0.73000       -0.06000
H         -0.33860       -2.67940        1.32590
H          0.08070       -2.28670       -0.39390
H          1.83580       -0.70080        0.90590
H          0.54200       -0.84000        3.32240
H         -0.88940        1.03010        3.45760
H         -2.06920       -0.85930        2.68130
