10
gdb 452	8.01043	3.70601	2.64411	2.7134	38.99	-0.2775	-0.0003	0.2772	459.0271	0.074203	-342.335241	-342.330282	-342.329338	-342.36377	16.844
O          0.01760        0.01160       -0.07210
C         -0.04490        1.20210       -0.03780
C         -1.26360        2.10560        0.11890
O         -0.78260        3.40160       -0.18080
C          0.60490        3.37160        0.04820
O          1.03630        2.02500       -0.13440
H         -2.05550        1.83100       -0.58090
H         -1.65170        2.02620        1.14600
H          1.10550        4.01200       -0.68190
H          0.85780        3.68250        1.07370
