18
gdb 14374	3.80258	2.36937	1.97052	1.5045	71.28	-0.2351	0.086	0.3211	757.517	0.156473	-347.753949	-347.748004	-347.74706	-347.78351	25.5
C         -0.02800        1.50120        0.19620
C          1.51150        1.56160       -0.14220
C          1.28690        0.25960       -0.91340
C          1.77770       -1.10120       -1.42710
C          0.40960       -0.92450       -2.17380
C         -0.72670       -0.92010       -1.10380
C          0.02800       -0.03880       -0.07620
O          0.69900        0.50070       -2.23640
H         -0.32600        1.81550        1.19830
H         -0.61910        2.03700       -0.54690
H          1.89160        2.41160       -0.71230
H          2.12360        1.41540        0.75150
H          2.60540       -1.05060       -2.13590
H          1.90710       -1.91260       -0.70550
H          0.22090       -1.38600       -3.14370
H         -1.62670       -0.46560       -1.52540
H         -0.98400       -1.90940       -0.71460
H          0.25340       -0.57390        0.85040
