14
gdb 7628	5.40803	1.32427	1.10557	3.3508	59.48	-0.2533	-0.037	0.2163	1000.972	0.106901	-415.89311	-415.885561	-415.884616	-415.925317	27.393
N         -0.08300        1.33060        0.05740
C         -0.01500       -0.05220        0.08930
O          1.01820       -0.67780       -0.04950
N         -1.23840       -0.67260        0.27070
C         -2.54230       -0.22090       -0.26370
C         -2.83920       -1.70730       -0.56520
O         -3.78300       -2.30210       -0.98240
C         -1.42850       -2.09080       -0.08710
H          0.81970        1.77280        0.14020
H         -0.82180        1.78240        0.57420
H         -3.21220        0.24710        0.46670
H         -2.47360        0.41460       -1.15540
H         -0.75090       -2.43960       -0.87510
H         -1.38800       -2.79030        0.75400
