12
gdb 3959	7.69349	1.97775	1.60752	1.6896	51.18	-0.2564	-0.0018	0.2546	712.6826	0.09239	-356.688211	-356.681916	-356.680972	-356.719275	21.63
O         -0.01110        1.38060        0.33610
C          0.00440        0.00890       -0.02830
C         -1.40600       -0.48600        0.00890
N         -1.70650       -1.77560        0.17300
N         -3.03300       -1.78460        0.11870
N         -3.63020       -0.61500       -0.05540
C         -2.60540        0.23530       -0.13160
H          0.86880        1.73800        0.18740
H          0.41790       -0.12600       -1.04090
H          0.61880       -0.59610        0.65440
H         -3.55870       -2.63720        0.22190
H         -2.75790        1.29240       -0.26740
