17
gdb 15700	3.59016	1.74267	1.23637	3.9276	65.37	-0.2519	0.0169	0.2688	959.1502	0.1444	-401.02343	-401.016081	-401.015136	-401.055224	27.657
O         -0.04380        1.47810       -0.16620
C          0.03080        0.07660       -0.11870
C         -1.35380       -0.57240        0.03210
C         -1.38210       -2.10750        0.09460
C         -2.62070       -2.37430        0.95750
O         -2.72300       -1.23800        1.84120
C         -2.02480       -0.18880        1.33750
N         -1.93000        0.94690        1.89180
H         -0.55510        1.74030        0.61890
H          0.49030       -0.25820       -1.05580
H          0.67430       -0.27800        0.70580
H         -1.98910       -0.20980       -0.78660
H         -1.44540       -2.58400       -0.88530
H         -0.48290       -2.48060        0.59790
H         -3.53600       -2.43220        0.35620
H         -2.55170       -3.26940        1.57890
H         -2.45020        0.98610        2.76830
