10
gdb 18	10.12193	8.49011	4.89615	2.7362	35.53	-0.2431	-0.0087	0.2344	292.4367	0.083382	-193.08834	-193.082969	-193.082024	-193.116476	16.893
C         -0.00310        1.48050       -0.17260
C         -0.04530       -0.02890        0.00140
C          1.29710       -0.72190        0.16890
O         -1.08640       -0.64270        0.00630
H          0.59400        1.74670       -1.05230
H         -1.01540        1.87030       -0.28380
H          0.48100        1.95070        0.69100
H          1.82510       -0.32470        1.04330
H          1.14890       -1.79600        0.28550
H          1.93680       -0.52950       -0.70000
