18
gdb 17691	4.7987	1.59963	1.5464	1.9633	72.29	-0.2297	0.0797	0.3094	893.1271	0.155553	-343.869134	-343.862375	-343.861431	-343.900327	26.649
C         -0.12850        1.33350       -0.22010
C          1.27310        0.90540        0.03660
N          0.17800       -0.06190        0.09100
C         -0.20480       -0.54300        1.37930
C         -0.26290        0.12110        2.79730
N         -0.74770       -1.30840        3.06910
C         -1.56540       -1.15050        1.77520
C          0.39370       -1.74650        2.13470
H         -0.61280        1.93330        0.54790
H         -0.47190        1.52220       -1.23280
H          1.97070        0.77610       -0.78540
H          1.72380        1.21970        0.97580
H          0.67690        0.36080        3.30190
H         -1.02710        0.87920        2.98930
H         -2.42250       -0.47980        1.88120
H         -1.85230       -2.10190        1.32030
H          0.25050       -2.74160        1.70610
H          1.38650       -1.63860        2.58010
