18
gdb 15683	3.46761	1.63705	1.18424	1.7409	67.64	-0.2403	-0.0253	0.215	1025.2688	0.153602	-384.965778	-384.957713	-384.956769	-384.998547	29.444
C          0.13450        1.62230        0.12780
C          0.02050        0.09660        0.04800
C          0.58960       -0.49630       -1.24650
C          0.72920       -2.02460       -1.28440
O          0.72780       -2.38250       -2.66700
C         -0.19990       -1.54140       -3.32160
C         -0.26240       -0.25140       -2.49750
O         -0.89290        0.73420       -2.78050
H          1.18280        1.93920        0.08680
H         -0.39460        2.09290       -0.70320
H         -0.28880        1.99430        1.06570
H          0.54650       -0.35820        0.89710
H         -1.03080       -0.20280        0.14390
H          1.57510       -0.05380       -1.45540
H          1.65920       -2.39560       -0.84870
H         -0.11550       -2.50010       -0.75750
H          0.12830       -1.35480       -4.34840
H         -1.21030       -1.98340       -3.35990
