15
gdb 3489	4.88505	3.57558	3.13272	1.5759	59.7	-0.2395	0.0974	0.3369	531.8689	0.128072	-308.472241	-308.467552	-308.466608	-308.500312	20.04
C         -0.03200        1.58760        0.06820
C          1.49430        1.36030       -0.01390
O          1.77740        0.74260        1.25210
C          1.02910       -0.46410        1.03250
C          1.80350       -1.12070       -0.13250
C          1.23380        0.07390       -0.91050
C         -0.05520        0.05430       -0.00780
H         -0.40770        2.10130        0.95650
H         -0.44330        2.02870       -0.84400
H          2.22100        2.13800       -0.24250
H          0.79730       -0.95920        1.97400
H          2.88330       -1.23240       -0.00680
H          1.34830       -2.05660       -0.46820
H          1.22210        0.17700       -1.99390
H         -0.93350       -0.55700       -0.20630
