13
gdb 9156	8.14576	0.79859	0.73065	3.6912	81.	-0.255	-0.0564	0.1986	1462.496	0.093273	-361.435061	-361.426175	-361.425231	-361.469333	30.049
C          0.04670        1.45300        0.09850
N          0.15570        0.01150       -0.00980
C          0.40160       -0.61730       -1.19470
O          0.55180       -0.04780       -2.26120
C          0.47190       -2.06730       -1.07730
C          0.54350       -3.27650       -1.05380
C          0.62170       -4.63250       -1.01560
C          0.69080       -5.83740       -0.97950
H          0.81000        1.85830        0.77170
H          0.19400        1.86790       -0.89890
H         -0.94140        1.74870        0.46760
H          0.04820       -0.55900        0.81310
H          0.75210       -6.89730       -0.95050
