19
gdb 17662	3.79439	1.54343	1.47199	2.7831	70.92	-0.234	0.0645	0.2985	955.6263	0.16604	-365.022379	-365.014438	-365.013494	-365.054506	30.612
O         -0.35690        1.51090        0.32630
C          0.05830        0.16990        0.17000
C          0.98010       -0.16170       -1.04640
C          1.82570       -1.07090       -0.11370
C          1.18150       -0.36690        1.11170
C         -1.18930       -0.68920        0.20520
C         -2.35530       -0.31490        1.03840
N         -2.42580       -0.22530       -0.43590
H          0.41140        2.07950        0.22230
H          0.50950       -0.60710       -1.92600
H          1.53970        0.72590       -1.36150
H          1.53650       -2.12200       -0.18690
H          2.91100       -1.00700       -0.20990
H          1.80000        0.45780        1.48090
H          0.87280       -0.97880        1.96280
H         -0.98640       -1.74720        0.04940
H         -2.97620       -1.08930        1.48030
H         -2.29280        0.61000        1.60180
H         -2.29230        0.75070       -0.69420
