14
gdb 5777	6.20861	1.5013	1.31023	2.4599	64.09	-0.2205	0.0176	0.2381	901.4091	0.109561	-378.735095	-378.728637	-378.727693	-378.766074	24.
C          0.87050        0.95990       -0.11060
O         -0.02840        0.09060       -0.80350
C         -0.46210        0.65310        0.44270
C         -0.64820       -0.32090        1.53480
N         -1.23750       -0.10390        2.69050
C         -1.14930       -1.29730        3.37020
C         -0.50710       -2.24090        2.61140
N         -0.18450       -1.59940        1.43720
H          1.74740        0.48090        0.32110
H          1.04470        1.92410       -0.58530
H         -1.23600        1.41460        0.37430
H         -1.55590       -1.40900        4.36370
H         -0.26390       -3.27600        2.78330
H          0.22690       -1.99310        0.60670
