19
gdb 9392	5.12991	0.81559	0.73072	4.7794	73.33	-0.2658	0.036	0.3018	1534.7604	0.163724	-365.071687	-365.061909	-365.060965	-365.107077	33.339
C          0.01340        1.37340       -0.10790
O          0.04800       -0.03320       -0.05480
C          0.62380       -0.52560        1.13210
C          0.57750       -2.04890        1.06980
C          1.30080       -2.73210        2.25290
C          0.63570       -2.47610        3.62090
C          1.39450       -4.17560        2.00590
N          1.45820       -5.31370        1.81430
H          1.02420        1.80910       -0.06300
H         -0.44950        1.65260       -1.05710
H         -0.58020        1.79950        0.71650
H          1.66870       -0.17830        1.22990
H          0.07520       -0.14340        2.00900
H         -0.46560       -2.38080        1.03550
H          1.04160       -2.36340        0.13020
H          2.33190       -2.35500        2.29160
H          0.65790       -1.41130        3.86470
H         -0.40660       -2.80770        3.61060
H          1.15770       -3.01750        4.41350
