19
gdb 8459	3.94353	1.77184	1.58523	0.6886	70.47	-0.2257	0.0683	0.294	887.0205	0.167128	-365.030785	-365.0236	-365.022656	-365.061545	29.412
C         -0.10290        1.51860        0.00630
C          0.08310        0.00860        0.01040
C          0.99260       -0.58040       -1.11810
C          1.96850       -1.33690       -0.20650
O          2.95150       -2.04270       -0.89110
C          0.99570       -1.93170        0.85350
N          0.76660       -0.49120        1.26050
C          2.22330       -0.27480        0.89940
H          0.85180        2.05370        0.01070
H         -0.64880        1.82910       -0.89060
H         -0.67270        1.83390        0.88530
H         -0.90590       -0.46030       -0.00940
H          0.46600       -1.25020       -1.80310
H          1.50230        0.18570       -1.71000
H          3.52200       -2.47410       -0.24640
H          0.10320       -2.47200        0.52390
H          1.49710       -2.47750        1.65810
H          2.86180       -0.62790        1.71420
H          2.50400        0.74260        0.61740
