17
gdb 1558	6.76923	1.20655	1.09797	2.2077	62.06	-0.2727	-0.0365	0.2362	1079.2887	0.146116	-346.870614	-346.862228	-346.861283	-346.903618	29.301
C         -0.02560        1.59440       -0.00900
C         -0.00750        0.06470        0.02760
C         -1.41160       -0.54720       -0.01290
C         -1.38230       -2.08340        0.08560
O         -0.79030       -2.51360        1.28160
C         -2.78080       -2.64870       -0.04040
O         -3.26580       -3.35120        0.81400
H          0.98920        2.00270        0.02020
H         -0.50850        1.96730       -0.91940
H         -0.57320        2.00430        0.84680
H          0.57560       -0.32000       -0.81980
H          0.49700       -0.28480        0.93410
H         -2.01110       -0.15920        0.82080
H         -1.92220       -0.25590       -0.94130
H         -0.81280       -2.46910       -0.78200
H         -1.45600       -3.06960        1.71640
H         -3.34020       -2.37810       -0.95960
