15
gdb 5413	5.06177	1.55077	1.19592	0.774	69.81	-0.2472	-0.0184	0.2287	958.73	0.121024	-362.716688	-362.70965	-362.708705	-362.748467	25.826
O          0.02160        1.42920        0.00840
C         -0.00390        0.01360        0.00350
C         -1.43360       -0.47470        0.01430
N         -1.57440       -1.80580        0.01240
C         -2.81320       -2.29830        0.02140
C         -3.95950       -1.50710        0.03260
C         -3.80080       -0.12580        0.03450
C         -2.51490        0.40500        0.02520
H          0.93960        1.71230        0.00080
H          0.49530       -0.40160       -0.88580
H          0.51080       -0.40810        0.88090
H         -2.89570       -3.38310        0.01950
H         -4.94220       -1.96500        0.03960
H         -4.66500        0.53090        0.04320
H         -2.33600        1.47190        0.02620
