20
gdb 16413	3.40452	2.11085	1.73067	0.2036	79.04	-0.2303	0.0218	0.2521	859.0259	0.179901	-311.870534	-311.863688	-311.862744	-311.900988	28.472
C         -0.15760        1.55520        0.00350
C          0.03670        0.03010        0.00440
C          0.75330       -0.45430       -1.24100
C          1.85300       -1.19940       -1.12460
C          2.34560       -1.53890        0.26630
C          1.11640       -1.98710        1.11770
C          0.79550       -0.46990        1.25410
C          2.32970       -0.23050        1.11500
H          0.80350        2.07910        0.01770
H         -0.69950        1.88210       -0.89030
H         -0.73170        1.87570        0.87970
H         -0.96740       -0.42290        0.02090
H          0.34690       -0.17290       -2.20920
H          2.39450       -1.56610       -1.99150
H          3.24320       -2.15900        0.26620
H          0.37730       -2.63160        0.63440
H          1.41750       -2.41940        2.07620
H          0.30490       -0.12830        2.16980
H          2.83570       -0.36070        2.07570
H          2.68080        0.68540        0.63390
