13
gdb 4391	3.70029	2.05157	1.33071	3.5539	65.2	-0.2475	-0.0785	0.169	861.3318	0.095786	-398.65257	-398.645822	-398.644878	-398.683605	24.702
C          0.06570        1.48530        0.03540
C         -0.06040        0.00070       -0.00700
C         -1.19460       -0.70790       -0.21280
N         -1.20490       -2.08380       -0.23340
C         -0.08540       -2.69950       -0.04900
C          1.19930       -2.03340        0.18120
O          2.26610       -2.55120        0.35690
O          1.11590       -0.63810        0.18710
H          0.76310        1.83200       -0.73450
H         -0.90460        1.95820       -0.12510
H          0.46410        1.80790        1.00320
H         -2.14060       -0.20590       -0.36940
H         -0.06010       -3.78590       -0.05980
