9
gdb 21986	5.73016	1.75214	1.34184	4.1545	47.46	-0.3151	-0.1119	0.2032	786.8821	0.048901	-466.548854	-466.543002	-466.542058	-466.580205	19.672
O         -0.10640        0.00480        0.00350
N         -0.03330        1.21960        0.00700
O          0.97640        1.90110        0.00290
C         -1.31110        1.94540        0.01740
N         -1.33750        3.25020        0.02080
O         -2.69900        3.51110        0.03050
C         -3.31960        2.32310        0.03160
N         -2.51450        1.30890        0.02370
H         -4.39940        2.32800        0.03870
