16
gdb 16544	2.95338	2.26687	1.61945	1.9811	64.14	-0.2414	-0.0317	0.2097	822.0333	0.13028	-383.724265	-383.716895	-383.715951	-383.756131	27.321
O         -0.06280        1.50920       -0.05360
C         -0.01900        0.11070       -0.01120
C         -1.33630       -0.71490        0.06420
C         -2.46080       -0.22830       -0.88780
C         -2.03590       -1.28000       -1.95560
C         -0.80400       -1.66620       -1.08170
C          0.32880       -0.65340       -1.29360
O          1.07910       -0.40140       -2.19580
H          0.46220        1.78620       -0.81430
H          0.65010       -0.24340        0.79330
H         -1.62660       -1.07210        1.05050
H         -3.47150       -0.36440       -0.50000
H         -2.34430        0.81670       -1.18480
H         -2.74490       -2.10670       -2.03620
H         -1.80840       -0.91950       -2.96160
H         -0.54250       -2.71860       -0.97230
