16
gdb 9534	2.82786	1.92103	1.61577	3.3113	60.55	-0.2522	0.0015	0.2537	875.8489	0.128693	-420.889445	-420.881094	-420.880149	-420.922292	29.428
C         -0.06050        1.43610        0.00030
O          0.14510        0.02890        0.04260
C          0.72750       -0.53730       -1.10610
C          2.14830       -0.06310       -1.38650
C          0.48590       -2.06040       -1.13130
O         -0.33690       -1.92780       -2.33750
C         -0.20910       -0.56460       -2.34490
O         -0.71310        0.21460       -3.08980
H          0.88580        1.99150        0.03540
H         -0.61860        1.73510       -0.89420
H         -0.64350        1.68380        0.88960
H          2.76910       -0.20330       -0.49630
H          2.58670       -0.62760       -2.21450
H          2.16330        0.99400       -1.66300
H          1.35260       -2.69560       -1.32160
H         -0.10690       -2.42670       -0.29270
