15
gdb 18549	4.34269	1.96815	1.55274	2.5435	66.54	-0.2309	-0.0267	0.2041	807.4034	0.120075	-362.658472	-362.652169	-362.651225	-362.689025	24.381
O          0.05920        0.11890       -0.91310
C          0.02270        1.14690       -0.31040
C         -1.06560        1.96510        0.40190
N         -0.08650        3.06970        0.59240
C          0.21840        3.41250        1.99370
C          1.44100        2.59240        2.33660
C          1.90740        1.94730        1.26790
C          1.05060        2.23900        0.06600
H         -1.93410        2.22870       -0.21130
H         -1.42020        1.49410        1.33030
H          0.41420        4.48850        2.10690
H         -0.64430        3.18660        2.63550
H          1.88330        2.57690        3.32590
H          2.78300        1.31210        1.22580
H          1.60560        2.66260       -0.78080
