13
gdb 320	6.47877	3.57961	3.5684	1.7613	50.04	-0.2445	0.0682	0.3126	459.4671	0.109323	-286.408473	-286.403385	-286.402441	-286.436586	19.785
O         -0.07660        1.38500        0.00620
C          0.01680        0.00510       -0.01040
C          0.67350       -0.97600        0.99650
N          0.01750       -1.91370       -0.02700
C         -1.18200       -0.94990        0.04160
C          0.56840       -0.95790       -1.09490
H          0.81190        1.75580       -0.03520
H          1.76440       -1.05170        1.01660
H          0.24310       -1.05300        1.99810
H         -1.74500       -1.02140        0.97540
H         -1.83590       -1.00580       -0.83210
H          0.03960       -1.01810       -2.04950
H          1.65170       -1.03240       -1.22560
