7
gdb 3900	5.70645	3.2616	2.21508	0.8069	40.62	-0.2886	-0.1401	0.1485	509.6496	0.028773	-407.364323	-407.358989	-407.358045	-407.393485	18.268
O         -0.00380        0.07960       -0.36050
C         -0.01370        1.19850        0.04930
N         -1.21290        1.90600        0.34550
N         -1.24970        3.11360        0.08690
O         -0.05390        3.72100       -0.38720
N          1.17010        3.14670        0.05500
N          1.17310        1.93860        0.31410
