15
gdb 21950	6.97612	1.05882	0.97868	2.0273	62.39	-0.2565	0.0093	0.2658	1145.3497	0.121274	-396.002313	-395.994776	-395.993831	-396.035405	26.345
O          0.07720        1.43140        0.19160
C          0.06500        0.01750        0.15180
C         -1.35550       -0.54360       -0.05740
C         -1.37000       -2.03530       -0.08960
N         -0.81490       -2.80850       -1.01070
C         -1.08070       -4.06580       -0.56140
N         -1.75960       -4.13050        0.57140
N         -1.93230       -2.81720        0.85890
H         -0.09220        1.75660       -0.69830
H          0.72880       -0.38410       -0.62530
H          0.45350       -0.31650        1.11940
H         -2.00950       -0.16780        0.73620
H         -1.74910       -0.16780       -1.00920
H         -0.76790       -4.95720       -1.08430
H         -2.43750       -2.54860        1.68760
