14
gdb 16677	3.62842	1.92922	1.69507	2.6313	63.73	-0.2529	-0.005	0.2478	807.9988	0.106596	-382.51599	-382.509231	-382.508287	-382.546968	25.364
C          0.01760        1.44580        0.05260
C         -0.04740       -0.04130        0.01400
C         -0.05970       -0.91750       -1.01270
C         -0.01510       -2.25840       -0.31880
O         -0.88610       -2.05990        0.83220
C         -0.00310       -0.97090        1.21420
C          1.15710       -1.94550        0.71310
O          2.23550       -2.31590        1.01940
H          0.91510        1.78730        0.58290
H          0.04010        1.86930       -0.95480
H         -0.84310        1.86880        0.58420
H         -0.01300       -0.73530       -2.07640
H         -0.15590       -3.19500       -0.85160
H         -0.12690       -0.60580        2.23110
