20
gdb 18013	4.17356	1.47581	1.34809	1.5906	74.5	-0.236	0.0801	0.3161	1019.7533	0.177619	-348.977685	-348.969842	-348.968898	-349.010138	29.81
C          0.27760        1.46740        0.12200
C          0.03590       -0.04330        0.02950
C          0.53870       -0.61940       -1.28130
O          1.98080       -0.49480       -1.44590
C          2.10390       -1.87780       -1.83490
C          2.52240       -2.79390       -0.66300
C          1.01430       -3.04460       -0.34020
C          0.60110       -2.14210       -1.53690
H          1.34380        1.68900        0.02020
H         -0.25360        2.00300       -0.67260
H         -0.06500        1.86560        1.08170
H          0.53380       -0.54570        0.86600
H         -1.03670       -0.26390        0.11510
H          0.03470       -0.10600       -2.11580
H          2.59360       -1.99520       -2.80580
H          3.05950       -3.69500       -0.97160
H          3.10560       -2.27630        0.10170
H          0.71520       -4.08560       -0.48210
H          0.66740       -2.72910        0.64610
H         -0.11240       -2.55010       -2.25210
