15
gdb 21948	6.83914	1.00942	0.93703	2.9016	62.54	-0.2574	-0.0114	0.2461	1183.9329	0.119271	-399.785245	-399.777636	-399.776692	-399.818305	26.646
O         -0.07750        1.46330        0.05390
C          0.03190        0.05130        0.08090
C         -1.37790       -0.51930       -0.09550
C         -1.40450       -2.01560       -0.05620
C         -1.54230       -2.90290       -1.07810
O         -1.49530       -4.16700       -0.63210
N         -1.31850       -4.14940        0.74710
C         -1.26650       -2.88200        1.07030
H          0.80200        1.83790        0.15710
H          0.68110       -0.32340       -0.72600
H          0.45840       -0.30360        1.03290
H         -2.01490       -0.10310        0.69310
H         -1.78060       -0.15750       -1.04680
H         -1.68470       -2.78450       -2.14150
H         -1.13670       -2.61320        2.11000
