13
gdb 19903	6.33317	1.46139	1.42849	4.297	59.7	-0.2452	0.0027	0.2478	854.8716	0.09421	-398.504519	-398.498188	-398.497244	-398.535212	23.754
O          0.07260        0.03860        0.32890
C          0.05120        1.19660       -0.01090
N          1.11390        1.87910       -0.57040
C          2.48350        1.78570       -0.12310
C          3.40560        2.42350       -1.23130
O          2.58430        2.86880       -2.30760
C          2.66960        3.68690       -1.14640
C          1.72920        3.07980       -0.03390
H         -0.85600        1.82940        0.02370
H          2.77140        1.09760        0.65970
H          4.44550        2.19860       -1.43070
H          2.97580        4.71940       -1.25780
H          1.34070        3.58430        0.84150
