13
gdb 9003	6.94702	0.90059	0.80112	0.108	58.19	-0.2658	-0.1128	0.153	1290.1271	0.092566	-435.767876	-435.759412	-435.758468	-435.802749	27.578
O         -0.07110       -0.06970        0.00010
C         -0.02550        1.14200        0.00770
N          1.12760        1.85990        0.00280
C          2.41370        1.22470       -0.01270
C          3.51130        2.26410       -0.01940
O          3.29890        3.45080       -0.01180
C          4.95160        1.70730       -0.03540
O          5.91210        2.42370       -0.04140
H         -0.92210        1.79050        0.01820
H          1.12460        2.87020        0.00730
H          2.55400        0.56150        0.85590
H          2.53630        0.56860       -0.88930
H          5.03260        0.59790       -0.04050
