18
gdb 10922	3.18602	1.89116	1.49496	2.6872	67.61	-0.2338	0.068	0.3018	903.1592	0.1525	-384.904736	-384.89645	-384.895505	-384.936815	31.72
C         -0.09930        1.59920       -0.06240
C          0.03050        0.08110       -0.06390
C          0.69210       -0.61750       -1.25810
C          2.15220       -0.22590       -1.36030
C          1.76280       -1.22900       -0.33200
O          2.37700       -2.46700       -0.33100
C          1.12570       -0.56630        0.87980
O          1.99740        0.27870        1.59760
H          0.86030        2.09120       -0.23790
H         -0.79710        1.92900       -0.83930
H         -0.48310        1.96000        0.89920
H         -0.94530       -0.36800        0.15060
H          0.17000       -1.07130       -2.09170
H          2.66980       -0.66880       -2.20510
H          2.50440        0.76210       -1.08110
H          1.76720       -3.10740        0.05200
H          0.66910       -1.31610        1.54400
H          1.51550        0.65130        2.34290
