18
gdb 12146	5.71476	1.36045	1.34887	1.475	73.02	-0.214	0.078	0.2921	993.5674	0.152916	-347.753665	-347.746313	-347.745369	-347.785318	29.068
C          0.34930        1.56310        0.05940
C          1.34430        0.42800       -0.16770
C         -0.09840        0.14140        0.07400
C         -0.77900       -0.67440        1.16940
C         -1.63190       -1.19100        0.01430
C         -2.10490       -2.56870       -0.30190
C         -3.09990       -1.43370       -0.07480
O         -0.94170       -0.39200       -0.95470
H          0.38480        2.10820        0.99740
H          0.07030        2.15860       -0.80320
H          1.71240        0.28540       -1.17800
H          2.06000        0.19710        0.61500
H         -0.14880       -1.42160        1.65780
H         -1.31400       -0.09240        1.92370
H         -1.97010       -2.91410       -1.32140
H         -2.01050       -3.33940        0.45660
H         -3.68570       -1.42840        0.83890
H         -3.61220       -1.04090       -0.94660
