18
gdb 9843	3.54959	1.47881	1.18551	2.5247	63.44	-0.2555	0.0767	0.3322	1033.2695	0.152347	-422.052521	-422.043942	-422.042998	-422.085372	32.169
C          0.12510        1.54140       -0.17630
C         -0.02780        0.04140       -0.07840
C          1.07230       -0.83690       -0.49730
O          0.81320       -0.60360        0.90010
C         -1.44940       -0.52220       -0.08470
O         -1.43490       -1.91200        0.22140
C         -2.38940        0.18390        0.90560
O         -3.63440       -0.47540        0.94890
H          1.18170        1.81600       -0.21450
H         -0.36470        1.91950       -1.08020
H         -0.32360        2.04280        0.68610
H          0.85580       -1.84470       -0.84140
H          1.99430       -0.39430       -0.86980
H         -1.87330       -0.43530       -1.09270
H         -0.77790       -2.00750        0.92820
H         -1.90700        0.21230        1.89900
H         -2.57920        1.21720        0.59780
H         -3.41970       -1.41780        0.95470
