14
gdb 21052	3.99142	1.77312	1.23731	2.1136	60.45	-0.2063	0.0472	0.2535	914.8855	0.107563	-415.878834	-415.871012	-415.870068	-415.911347	28.083
C          0.02830        1.38610       -0.08750
N          0.05880       -0.05240        0.01320
N          0.12490       -0.82710       -1.11980
C          0.13500       -2.06620       -0.66040
O          0.19520       -3.12580       -1.49350
C          0.07790       -2.14560        0.74790
C          0.02980       -0.81590        1.12450
O         -0.03550       -0.20950        2.33070
H          0.93100        1.75230       -0.58600
H         -0.84560        1.70940       -0.66130
H         -0.02440        1.80400        0.91810
H          0.22490       -2.77060       -2.39120
H          0.07040       -3.02100        1.37430
H         -0.04810       -0.88680        3.01370
