16
gdb 18171	3.77155	1.60865	1.43445	2.0997	59.79	-0.242	0.0481	0.2901	902.2791	0.130075	-420.813476	-420.805961	-420.805017	-420.845322	28.405
O          0.04340        1.40240       -0.20110
C          0.10960        0.03720        0.17590
C         -1.25330       -0.61780        0.05560
O         -1.75720       -0.64070       -1.32670
C         -2.14470       -2.01600       -1.17020
C         -0.92310       -2.84910       -1.04520
O          0.25460       -2.54020       -1.72090
C         -1.44600       -2.12440        0.18790
H         -0.29430        1.42740       -1.10350
H          0.85450       -0.51950       -0.40640
H          0.42310        0.01510        1.22590
H         -1.97760       -0.05950        0.66150
H         -3.12300       -2.30410       -1.53850
H         -1.09710       -3.92120       -1.00270
H          0.08330       -1.71380       -2.19140
H         -1.74070       -2.64140        1.09140
