16
gdb 1670	4.30196	1.82583	1.35083	14.6499	63.56	-0.1706	-0.0323	0.1383	873.4033	0.135678	-362.87621	-362.867766	-362.866822	-362.909906	29.041
C          0.07640        1.57470        0.05330
C         -0.01590        0.05310       -0.00450
C         -1.41100       -0.49460       -0.07270
N         -2.17710       -0.21210        1.25580
H         -2.16280        0.79380        1.44140
H         -3.14790       -0.53620        1.24570
H         -1.68450       -0.67000        2.02530
C          0.76040       -0.57240       -1.29930
O          1.68620        0.12760       -1.70890
O          0.29210       -1.67060       -1.65240
H          1.11120        1.84850       -0.16270
H         -0.54280        2.03730       -0.72530
H         -0.20680        2.01640        1.02330
H          0.49870       -0.39410        0.86090
H         -2.02070       -0.02290       -0.84710
H         -1.39170       -1.57370       -0.22030
