13
gdb 20322	5.84204	1.31491	1.21536	2.9342	63.93	-0.2586	0.0044	0.263	967.5771	0.096905	-357.633539	-357.626532	-357.625588	-357.665662	25.199
C         -0.04660       -1.20940       -0.13380
C          0.00160       -0.01360       -0.03360
C          0.05440        1.44090        0.09550
C          1.45130        1.99150        0.02160
N          2.04910        2.52740        1.07470
N          3.25380        2.88300        0.56670
C          3.32470        2.55510       -0.73830
N          2.19900        1.98870       -1.12140
H         -0.08550       -2.26610       -0.22730
H         -0.54770        1.89810       -0.69920
H         -0.38210        1.74820        1.05140
H          3.93630        3.32810        1.15780
H          4.19220        2.74620       -1.35200
