9
gdb 115	160.02654	2.04896	2.04896	1.1881	54.54	-0.242	-0.0085	0.2335	576.5936	0.065688	-192.762455	-192.756657	-192.755713	-192.790147	19.382
C         -0.01790        1.47220        0.01020
C          0.00200        0.02100        0.00190
C          0.01850       -1.18860       -0.00480
C          0.03670       -2.54930       -0.01210
C          0.05290       -3.75680       -0.01850
H          0.99850        1.88140        0.00280
H         -0.54280        1.86520       -0.86780
H         -0.52590        1.85520        0.90230
H          0.06710       -4.81820       -0.02410
