18
gdb 14938	4.35538	1.37917	1.12095	2.7118	73.88	-0.2441	-0.02	0.2241	1055.7953	0.154783	-347.833813	-347.826195	-347.825251	-347.866302	28.322
O         -0.15190       -0.00490       -0.02660
C         -0.02900        1.19200        0.00900
C          1.28370        1.94180        0.00150
C          1.38070        2.82350       -1.26180
C          2.72790        3.55700       -1.31820
C          3.10050        4.16340        0.00890
C          2.50110        3.84340        1.15420
C          1.40710        2.81380        1.26860
H         -0.92600        1.85850        0.04520
H          2.08590        1.19610       -0.01300
H          1.24270        2.21360       -2.16070
H          0.56590        3.55910       -1.24610
H          3.51940        2.86640       -1.64420
H          2.68960        4.33920       -2.08660
H          3.90100        4.89910        0.00700
H          2.80180        4.33160        2.07820
H          0.44770        3.31540        1.47320
H          1.59010        2.17140        2.13880
