16
gdb 17037	3.83537	1.69998	1.38047	1.1807	65.55	-0.2426	-0.0385	0.2041	911.907	0.128927	-383.672785	-383.665413	-383.664468	-383.704562	27.357
C         -0.17540        1.50340        0.21500
C         -0.04340       -0.00080        0.07410
C          1.18490       -0.57380       -0.68470
O          2.06130       -0.14540        0.41940
C          0.87610       -0.77380        1.06570
C          1.01560       -1.94660        0.06490
C         -0.09890       -2.90070       -0.25660
O         -1.20580       -2.87900        0.22410
H          0.79130        1.95900        0.43730
H         -0.56680        1.94490       -0.70790
H         -0.87530        1.75440        1.01880
H         -0.99600       -0.49030       -0.13360
H          1.53380       -0.40160       -1.70390
H          0.85660       -0.80950        2.15480
H          1.97310       -2.47050        0.13290
H          0.17900       -3.67790       -1.00550
