19
gdb 1577	4.41106	1.35833	1.10529	1.8037	64.36	-0.2474	0.0804	0.3278	1090.3308	0.169201	-348.043466	-348.034159	-348.033214	-348.077616	32.093
C         -0.00830        1.40500       -0.11810
O         -0.02670        0.02330        0.15110
C         -1.30730       -0.59390        0.04730
C         -1.72850       -0.79250       -1.41150
C         -1.21380       -1.92010        0.80220
C         -0.91780       -1.75160        2.29380
O         -0.87820       -2.99210        2.98540
H          1.00280        1.76080        0.09610
H         -0.24130        1.63810       -1.16730
H         -0.71820        1.95370        0.52100
H         -2.05170        0.05080        0.54840
H         -1.00340       -1.42620       -1.93210
H         -2.71020       -1.27350       -1.46370
H         -1.79790        0.15910       -1.94610
H         -2.15210       -2.47350        0.68560
H         -0.42210       -2.52440        0.33800
H          0.01290       -1.18400        2.42390
H         -1.72040       -1.17630        2.76980
H         -0.12030       -3.48490        2.65530
