16
gdb 15982	3.84509	1.63639	1.27218	1.0029	69.1	-0.2471	0.0158	0.2629	972.8501	0.130761	-379.88314	-379.875326	-379.874382	-379.915681	27.793
C         -0.04480        1.37380        0.14440
N         -0.07460       -0.07710        0.26340
C         -1.10820       -0.70330       -0.05440
O         -2.34240       -0.27510       -0.53110
C         -2.88030       -1.63950       -0.50720
C         -1.51880       -2.13830       -0.03170
C         -0.69360       -3.32510       -0.34310
N         -1.24380       -3.11740        1.00610
H          0.70520        1.65910       -0.60200
H         -1.00640        1.81700       -0.13880
H          0.27560        1.80420        1.09910
H         -3.69320       -1.73170        0.21690
H         -3.20470       -1.94960       -1.50340
H         -1.13120       -4.15540       -0.89050
H          0.36620       -3.15710       -0.51400
H         -0.52710       -2.74640        1.62750
