15
gdb 20597	3.26648	1.87434	1.25624	2.1127	63.47	-0.248	-0.0133	0.2346	932.5102	0.11885	-399.793373	-399.785592	-399.784647	-399.825997	27.571
C          0.22830        1.49950       -0.02170
C          0.10880        0.00670       -0.03300
C         -0.00930       -0.83850       -1.09890
C         -0.03820       -0.62700       -2.58310
O          0.92700        0.31530       -3.02540
O         -0.10210       -2.11530       -0.67350
N         -0.05480       -2.14190        0.71470
C          0.07180       -0.88900        1.07450
H          1.03680        1.82800        0.63990
H          0.43750        1.87230       -1.02580
H         -0.69280        1.97390        0.33580
H          0.07420       -1.60330       -3.07530
H         -1.00590       -0.21700       -2.89190
H          1.79500       -0.00780       -2.76050
H          0.13600       -0.65190        2.12820
