11
gdb 699	8.8663	4.23287	4.1998	1.4437	45.55	-0.2396	0.0534	0.2929	381.938	0.085719	-285.160699	-285.156611	-285.155667	-285.187831	16.085
N         -0.10900        1.58260       -0.04330
C          1.36480        1.31190        0.00890
C          1.25770        0.02610        0.89760
O          1.99540       -0.82010       -0.02950
C          1.22520        0.05570       -0.90070
C         -0.03470        0.08620        0.01400
H         -0.43100        1.95390        0.85380
H          2.13060        2.08750       -0.00170
H          1.39100       -0.12170        1.97040
H          1.31350       -0.04960       -1.98030
H         -0.90450       -0.57080        0.00930
