16
gdb 8046	3.58485	1.84995	1.52047	1.897	71.49	-0.2397	0.0391	0.2788	875.8919	0.128436	-346.506555	-346.499036	-346.498092	-346.537967	29.077
C          0.00360        1.46590        0.07600
C         -0.00630       -0.02170       -0.06330
C          0.61690       -0.94970       -1.14070
C          0.10840       -1.81250        0.03320
O          0.68750       -0.83470        0.97230
C         -1.22710       -1.00960        0.03520
C         -2.03340       -0.98670        1.23360
C         -2.74110       -0.95600        2.20520
H          1.03170        1.83870        0.10580
H         -0.51130        1.93000       -0.77090
H         -0.50490        1.76100        0.99850
H          0.11800       -1.03270       -2.11000
H          1.70220       -0.88590       -1.21890
H          0.26130       -2.86960        0.24660
H         -1.83430       -1.09740       -0.87130
H         -3.35140       -0.93550        3.07380
