16
gdb 2773	4.82584	2.02997	1.54709	2.0436	63.8	-0.2464	0.0327	0.2791	827.0637	0.136221	-325.776001	-325.768288	-325.767344	-325.808159	26.615
C         -0.09340        1.41820       -0.07970
N         -0.16770       -0.03350       -0.16990
C          0.58300       -0.63750       -0.96520
O          1.54850       -0.15800       -1.84210
C          1.90240       -1.51370       -2.24840
C          0.81220       -2.09570       -1.31790
C          1.23480       -3.02070       -0.18340
H          0.68580        1.86760       -0.70640
H         -1.06120        1.84610       -0.36450
H          0.08560        1.70250        0.96300
H          1.76080       -1.65130       -3.32320
H          2.93410       -1.74760       -1.96920
H         -0.03240       -2.52050       -1.86850
H          2.09370       -2.61260        0.35870
H          0.41510       -3.14170        0.52990
H          1.50760       -4.01020       -0.56380
