16
gdb 19740	3.95699	2.47476	2.24525	1.2299	61.92	-0.2461	0.0795	0.3256	680.5221	0.134134	-383.715663	-383.710362	-383.709418	-383.744779	22.486
C         -0.01700        1.56870        0.01920
O          1.36510        1.98400       -0.05920
C          2.08210        0.86690       -0.51870
C          2.29210       -0.34750        0.46010
C          0.94870       -0.39230        1.21090
C          0.06210        0.04100        0.00270
C          1.13990       -0.19090       -1.11610
O          2.02280       -1.23820       -0.66440
H         -0.45380        1.97060        0.93880
H         -0.57410        1.97590       -0.83770
H          2.95940        1.16150       -1.09200
H          3.21990       -0.56570        0.98810
H          0.74180       -1.40630        1.55810
H          0.88750        0.30270        2.05220
H         -0.89120       -0.47310       -0.10980
H          0.83170       -0.26100       -2.15820
