12
gdb 8617	2.17139	2.08264	1.45395	2.1473	59.99	-0.3067	-0.0838	0.2228	883.3409	0.081287	-377.541983	-377.533639	-377.532695	-377.575102	28.072
C         -0.04030        1.58970       -0.02690
C         -0.01800        0.04630       -0.03470
C          0.73810       -0.51180        1.22890
O          1.21200        0.20810        2.05280
C         -1.37770       -0.51290        0.01290
N         -2.44230       -0.95020        0.11060
C          0.69290       -0.47700       -1.21120
N          1.30230       -0.88510       -2.10350
H          0.98410        1.96420       -0.02620
H         -0.56670        1.96290       -0.90610
H         -0.54260        1.93750        0.87660
H          0.78350       -1.61620        1.27260
