18
gdb 15113	7.73828	0.78398	0.74326	1.2079	75.53	-0.254	0.0345	0.2884	1514.8432	0.151456	-347.738397	-347.729465	-347.728521	-347.772922	31.679
C          0.05120       -1.10010       -0.38050
C          0.06990        0.08030       -0.16170
C          0.05760        1.51220        0.10890
O          1.36320        2.03890       -0.00330
C          1.40570        3.43080        0.25930
C          2.83010        3.90080        0.17450
C          3.43390        4.23070       -1.16510
C          3.11680        5.33630       -0.19060
H          0.04260       -2.14400       -0.57540
H         -0.62620        2.01520       -0.59750
H         -0.34940        1.69420        1.11920
H          0.78200        3.97740       -0.47030
H          0.98660        3.63800        1.25950
H          3.48950        3.44150        0.90480
H          4.47300        3.97350       -1.33540
H          2.80150        4.12690       -2.04040
H          2.27430        5.98350       -0.41250
H          3.93640        5.83650        0.31260
