18
gdb 13983	5.29492	1.23372	1.13413	1.3479	68.86	-0.2306	0.0733	0.3039	1102.5841	0.152658	-384.879429	-384.871288	-384.870343	-384.912573	29.356
C          0.64780        1.37530       -0.21280
O          0.90530       -0.00240       -0.34690
C         -0.16020       -0.70310       -0.94560
C          0.21200       -2.15160       -1.03150
C          1.07120       -2.92300       -0.08570
C          1.40790       -2.90250       -1.56850
C          0.37600       -3.73340       -2.32050
O         -0.72350       -3.01510       -1.69000
H          0.47820        1.85580       -1.18920
H         -0.23280        1.56540        0.42060
H          1.52530        1.82670        0.25580
H         -1.08740       -0.59750       -0.35420
H         -0.37490       -0.31260       -1.95460
H          1.72920       -2.31670        0.52680
H          0.68350       -3.82460        0.38210
H          2.35020       -2.54260       -1.95760
H          0.37170       -3.56100       -3.40280
H          0.33690       -4.81050       -2.11730
