16
gdb 8863	3.68187	1.43119	1.13227	5.1736	68.15	-0.2675	-0.0479	0.2195	1054.0807	0.129434	-379.958431	-379.949376	-379.948432	-379.992651	30.831
C         -0.09140        1.62970        0.03120
C         -0.05090        0.10050       -0.02040
N         -1.38500       -0.50750       -0.00760
C         -2.05270       -0.70870       -1.28300
C         -1.93140       -0.79040        1.20150
O         -1.40180       -0.58200        2.27700
C         -3.27450       -1.40840        1.16500
N         -4.32340       -1.89080        1.22140
H          0.92580        2.03090       -0.00700
H         -0.65000        2.04840       -0.81170
H         -0.55760        1.96490        0.96080
H          0.45470       -0.24560       -0.92760
H          0.49130       -0.28790        0.84380
H         -3.04410       -1.13480       -1.12910
H         -2.16430        0.24260       -1.81530
H         -1.47240       -1.39220       -1.91320
