13
gdb 1910	5.83122	2.19878	1.89626	4.0266	55.15	-0.2383	-0.0084	0.2299	667.7782	0.100746	-344.436348	-344.430001	-344.429057	-344.466377	23.88
O          0.06720        1.40050        0.15290
C          0.02420        0.03150        0.05810
C         -0.24470       -0.75460       -1.16110
C         -1.19980       -0.96510        0.02930
C         -0.50920       -1.75770        1.08760
O         -0.84350       -2.66960        1.79130
C          0.72920       -0.81930        1.11450
H         -0.18760        1.78710       -0.69090
H         -0.72250       -0.21190       -1.97430
H          0.41680       -1.55000       -1.49770
H         -2.26680       -0.82070       -0.08960
H          1.71070       -1.23160        0.86180
H          0.78240       -0.31320        2.08280
