17
gdb 8118	4.1024	1.70132	1.41561	1.789	67.91	-0.2473	-0.0247	0.2226	906.6333	0.142511	-363.878552	-363.871268	-363.870324	-363.909955	28.193
C         -0.08980        1.51270        0.04520
C         -0.01230        0.00740        0.04280
C         -1.18180       -0.79620       -0.49940
C         -1.06930       -2.18550        0.14820
O         -1.67460       -3.16690       -0.19160
C         -0.06360       -2.11230        1.31010
C          0.65550       -0.79620        1.11810
N          1.32460       -0.57280       -0.17360
H          0.81040        1.93910        0.49450
H         -0.17160        1.90240       -0.97580
H         -0.96260        1.86120        0.60850
H         -2.14310       -0.35450       -0.20350
H         -1.19900       -0.88250       -1.59130
H         -0.62250       -2.13530        2.25520
H          0.58920       -2.99150        1.30700
H          1.13660       -0.32360        1.96940
H          1.28940       -1.40670       -0.75840
