13
gdb 1782	4.5314	2.15252	1.81655	3.2191	51.37	-0.2487	-0.0274	0.2212	701.5161	0.09908	-381.574917	-381.567674	-381.56673	-381.605867	26.226
O         -0.19390        1.23450       -0.20070
C         -0.15020       -0.13940        0.05260
C         -0.69520       -0.69250        1.32920
C         -1.53400       -0.78850        0.05770
O         -2.62560        0.05250       -0.10110
C         -1.66510       -2.11460       -0.59620
O         -0.85020       -3.00060       -0.48530
H          0.19380        1.70290        0.54550
H          0.64840       -0.67880       -0.45050
H         -0.26200       -1.61470        1.70010
H         -1.07100        0.00610        2.06930
H         -2.26840        0.91430       -0.36150
H         -2.58250       -2.21870       -1.21340
