16
gdb 2315	5.12536	1.76975	1.48037	1.2415	66.36	-0.2271	0.0507	0.2777	846.4976	0.13508	-288.570364	-288.562639	-288.561695	-288.60223	28.123
C         -0.28660        1.41560        0.21780
N          0.03450       -0.00040        0.12020
C          1.38750       -0.37440       -0.27320
C          0.89930       -0.62900        1.11270
C          1.50760        0.12380        2.29250
C          0.57370        0.29270        3.40220
C         -0.20800        0.41740        4.30660
H          0.56380        2.06350        0.48360
H         -0.66870        1.75220       -0.75110
H         -1.07200        1.55740        0.96580
H          1.47700       -1.18120       -0.99620
H          2.12070        0.42430       -0.39390
H          0.58080       -1.63660        1.37470
H          2.38600       -0.43690        2.63860
H          1.88430        1.10170        1.97380
H         -0.89420        0.53340        5.10850
