20
gdb 19786	2.83039	2.47747	1.73222	0.3628	76.56	-0.2404	0.0792	0.3196	849.9883	0.179418	-311.851812	-311.844858	-311.843913	-311.882413	28.896
C          0.00360        1.58860        0.01150
C          0.04910        0.05540        0.00220
C          0.72440       -0.56590       -1.23190
C          2.18930       -0.33210       -1.51180
C          1.75600       -1.57380       -0.76970
C          1.75820       -1.58290        0.74960
C          2.19360       -0.35020        1.50530
C          0.72790       -0.58060        1.22680
H          1.01030        2.01800        0.01270
H         -0.52020        1.97130       -0.87070
H         -0.51770        1.96060        0.89970
H         -0.98760       -0.30680        0.00150
H          0.08730       -0.76930       -2.08680
H          2.51270       -0.46070       -2.53990
H          2.72900        0.44870       -0.98960
H          1.87120       -2.53090       -1.26580
H          1.87490       -2.54580        1.23390
H          2.52000       -0.49110        2.53080
H          2.73170        0.43680        0.99090
H          0.09330       -0.79430        2.08110
