16
gdb 11921	3.24446	1.84022	1.50625	4.4309	70.88	-0.245	0.0154	0.2604	885.3962	0.131184	-342.764254	-342.756748	-342.755804	-342.795844	28.239
C          0.00560        1.52250        0.01260
C          0.03700        0.02550        0.02140
C         -0.85360       -0.83930        0.86120
C          0.65230       -0.97150        1.03270
C          1.22680       -1.72710       -0.17110
N          0.64230       -0.71270       -1.09480
C          1.31770       -0.72330        2.26490
N          1.86650       -0.52240        3.26490
H          0.97650        1.92580       -0.28670
H         -0.74660        1.88420       -0.69860
H         -0.25210        1.91430        1.00060
H         -1.35800       -0.34250        1.68350
H         -1.40180       -1.67120        0.42390
H          2.31920       -1.71980       -0.21030
H          0.86660       -2.75520       -0.29200
H         -0.03900       -1.08770       -1.75060
