16
gdb 14407	3.37103	2.62738	2.08408	0.9421	63.35	-0.2318	0.0691	0.3009	707.5328	0.131966	-383.691122	-383.685111	-383.684167	-383.72075	25.159
O         -0.05790        1.42230       -0.06850
C          0.00700        0.03880       -0.09100
C          0.46210       -0.83100       -1.27610
C         -0.25520       -1.92490       -0.45280
O          0.60960       -2.07130        0.68930
C          0.39370       -0.76600        1.23950
C         -1.10530       -0.79510        1.61380
C         -1.27800       -0.83710        0.08870
H          0.83450        1.76930        0.04090
H         -0.08600       -0.55350       -2.18040
H          1.52440       -0.98380       -1.48370
H         -0.54970       -2.89060       -0.85640
H          1.19490       -0.48020        1.92070
H         -1.44260       -1.63240        2.22870
H         -1.45510        0.15920        2.01370
H         -2.20600       -0.67010       -0.45440
