18
gdb 18128	3.40425	2.26706	1.78174	0.4262	66.4	-0.2454	0.0793	0.3247	799.6832	0.156783	-384.955577	-384.948891	-384.947947	-384.986712	25.735
C         -0.05240        1.37300        0.18410
C          1.37610        1.91880        0.12620
C          2.20490        0.69080        0.51670
O          2.31400        0.54070        1.93410
C          1.52520       -0.56220        2.38110
C          1.39270       -1.49030        1.17160
C          1.35600       -0.49590        0.00660
O          0.04030        0.01010       -0.23090
H         -0.45710        1.44030        1.20510
H         -0.74730        1.88370       -0.48930
H          1.62950        2.22560       -0.89430
H          1.55490        2.75820        0.80080
H          3.21680        0.71670        0.09970
H          2.03700       -1.01880        3.23350
H          0.53700       -0.21860        2.72210
H          2.27560       -2.13230        1.08100
H          0.50090       -2.11940        1.19430
H          1.72620       -0.92950       -0.92800
