18
gdb 17693	4.72176	1.52278	1.48709	1.6904	72.11	-0.261	0.0956	0.3566	919.7607	0.155069	-347.72922	-347.722418	-347.721474	-347.760563	26.606
C          0.24640        1.49630        0.09100
O          1.14650        0.42970       -0.20850
C         -0.21890        0.10260        0.08090
C         -0.46780       -0.66450        1.33210
C         -1.83240       -0.85470        2.06810
C         -0.78730       -1.64810        2.90390
C         -0.22640       -2.19170        1.56010
C          0.17110       -0.43390        2.73540
H          0.41710        1.99720        1.04250
H          0.00120        2.15250       -0.74330
H         -0.78450       -0.23440       -0.79060
H         -2.26330        0.03660        2.53340
H         -2.59350       -1.44210        1.54620
H         -0.97150       -2.21470        3.81650
H         -0.86890       -2.87700        0.99960
H          0.81530       -2.52270        1.55570
H          1.24200       -0.63300        2.81840
H         -0.11020        0.48570        3.25700
