14
gdb 8171	3.00868	2.71804	1.83355	3.096	56.78	-0.2745	0.0041	0.2786	725.6118	0.108434	-419.692536	-419.686385	-419.68544	-419.722526	24.544
O          0.05490        1.43210        0.09210
C         -0.01350        0.06340        0.09410
C          0.34120       -0.86090        1.31740
C         -0.35530       -1.88970        0.40140
C         -1.33600       -0.77990       -0.03320
O          0.56630       -1.96670       -0.74820
C          0.80870       -0.64880       -0.96980
O          1.51280       -0.17550       -1.81500
H          0.64850        1.68130       -0.63220
H          1.39290       -1.02880        1.55840
H         -0.23870       -0.61080        2.20720
H         -0.64150       -2.89360        0.69650
H         -2.06690       -0.52270        0.73520
H         -1.80380       -0.87430       -1.01530
