18
gdb 16643	2.82154	2.22409	1.58717	3.0372	70.94	-0.2326	-0.0101	0.2225	871.8385	0.155033	-347.830494	-347.823133	-347.822189	-347.862092	28.405
C          0.61050        1.50860       -0.01820
C          0.06030        0.07530       -0.01610
C          0.43710       -0.80530       -1.23610
C          1.31300       -1.94450       -0.70690
C          2.57220       -1.55040       -0.01000
C          1.33020       -1.89000        0.81030
C          0.51350       -0.71320        1.23300
O          0.20490       -0.42970        2.36510
H          1.69890        1.52650       -0.13740
H          0.17770        2.09030       -0.83790
H          0.36510        2.00470        0.92490
H         -1.02990        0.14290        0.06960
H         -0.46370       -1.22120       -1.69720
H          0.95530       -0.23150       -2.01260
H          1.28090       -2.90080       -1.21630
H          3.37630       -2.27560        0.04590
H          2.90840       -0.51970       -0.05390
H          1.35590       -2.75940        1.45490
