18
gdb 11973	2.62234	2.23374	1.73544	3.0902	71.94	-0.233	-0.0078	0.2251	862.0264	0.15271	-347.803586	-347.795605	-347.794661	-347.835362	30.488
C         -0.07240        1.59070       -0.05620
C          0.02050        0.06660       -0.05580
C         -1.33910       -0.56680        0.27020
C          0.71940       -0.63900       -1.24490
C          2.14830       -0.24670       -1.34470
C          1.76390       -1.29240       -0.30280
C          1.09890       -0.60900        0.85240
O          1.20940       -0.68420        2.04450
H          0.87110        2.06840       -0.33350
H         -0.84160        1.93440       -0.75710
H         -0.34420        1.94880        0.94200
H         -2.09190       -0.25710       -0.46320
H         -1.28610       -1.66030        0.26240
H         -1.67610       -0.25330        1.26230
H          0.19260       -1.13460       -2.05090
H          2.70220       -0.65470       -2.18420
H          2.48770        0.73620       -1.03360
H          2.20520       -2.28130       -0.31010
