12
gdb 2635	15.94023	0.95568	0.95049	0.4477	52.78	-0.2985	-0.0124	0.2861	1110.9398	0.089019	-360.545832	-360.538439	-360.537495	-360.578559	23.808
O          0.12260        0.03360       -0.11950
C          0.15130        1.22100       -0.20410
O          0.89090        1.99160        0.62700
C          0.88210        3.40120        0.42640
C          2.28360        3.84680       -0.02210
C          2.35910        5.29640       -0.17680
N          2.38890        6.44520       -0.29360
H         -0.41270        1.81650       -0.94850
H          0.13070        3.68580       -0.31950
H          0.61750        3.87080        1.37700
H          3.02210        3.51830        0.71630
H          2.54050        3.36690       -0.97250
