20
gdb 8387	3.71674	1.43581	1.27224	1.7925	75.18	-0.2531	0.0776	0.3307	1062.4027	0.175632	-348.98748	-348.978992	-348.978047	-349.020393	32.109
C         -0.24520        1.49720        0.42960
C         -0.17360       -0.00570        0.36890
O          0.97990       -0.57350       -0.27780
C          0.81410       -0.79640        1.11210
C          1.79960       -0.35330        2.19700
C          1.36230       -1.60420        3.02870
C          0.41830       -1.29040        4.18440
C          0.65710       -2.17570        1.75520
H          0.71510        1.92260        0.73160
H         -0.50820        1.90960       -0.55020
H         -1.01160        1.81750        1.14440
H         -1.10820       -0.50500        0.10200
H          2.83440       -0.41280        1.84810
H          1.63900        0.62610        2.65740
H          2.19650       -2.21340        3.38500
H         -0.42680       -0.67730        3.85000
H          0.00970       -2.20770        4.62220
H          0.93380       -0.73950        4.97870
H         -0.35920       -2.56100        1.88050
H          1.25910       -2.92840        1.23790
