15
gdb 1991	6.43404	1.58894	1.44417	3.4827	58.06	-0.2366	0.0389	0.2756	848.4204	0.125268	-341.836348	-341.828981	-341.828037	-341.868258	26.374
N          0.52380        0.14340       -0.51610
C         -0.34260        0.28000        0.51970
O         -0.22320        1.09480        1.41370
C         -1.54220       -0.67360        0.46320
N         -1.32680       -1.80980       -0.42440
C         -0.86460       -3.04800        0.20180
C         -2.26150       -2.92300       -0.29610
H          1.31120        0.76590       -0.58130
H          0.33820       -0.53980       -1.23200
H         -1.77910       -0.95930        1.49930
H         -2.39450       -0.09500        0.08620
H         -0.12930       -3.61660       -0.35960
H         -0.71410       -3.04380        1.27960
H         -3.05000       -2.83820        0.44910
H         -2.56130       -3.39750       -1.22580
