23
gdb 15427	4.92561	0.85108	0.78307	1.2181	83.57	-0.219	0.0892	0.3082	1572.7636	0.210818	-330.306256	-330.296381	-330.295436	-330.341481	35.623
C         -5.05260        0.03590       -0.73740
C         -4.19840       -1.19600       -0.42740
C         -2.77530       -1.09800       -0.99530
C         -1.93840       -2.31110       -0.63830
C         -1.84850       -3.49210       -1.54670
N         -0.67790       -2.65760       -1.29480
C         -0.16860       -1.84320       -2.39370
C          0.91660       -2.60540       -3.15110
H         -6.05900       -0.06050       -0.31820
H         -4.60340        0.94410       -0.32050
H         -5.15520        0.18520       -1.81810
H         -4.14350       -1.34060        0.65960
H         -4.68360       -2.09490       -0.82820
H         -2.82950       -0.97100       -2.08210
H         -2.29230       -0.19270       -0.60100
H         -1.90880       -2.50650        0.43460
H         -1.81290       -4.50650       -1.15710
H         -2.33740       -3.39870       -2.51750
H         -0.95480       -1.53170       -3.10170
H          0.25260       -0.92660       -1.96270
H          1.33360       -1.99030       -3.95480
H          1.72550       -2.89440       -2.47440
H          0.51020       -3.51820       -3.59910
