17
gdb 2715	14.07064	0.7666	0.75362	3.082	62.2	-0.2496	-0.0205	0.229	1432.3632	0.146052	-346.860404	-346.851587	-346.850643	-346.894764	29.247
O         -0.07690        1.47820       -0.11090
C          0.04120        0.06620       -0.03810
C         -1.36500       -0.51560        0.03280
C         -1.37320       -2.04490        0.10680
C         -2.79520       -2.62630        0.19440
C         -2.78940       -4.13670        0.15340
O         -3.27630       -4.85640        0.98640
H          0.80750        1.85390       -0.14420
H          0.56630       -0.33730       -0.91990
H          0.61630       -0.24200        0.85070
H         -1.87280       -0.09210        0.90750
H         -1.92580       -0.17810       -0.84740
H         -0.86540       -2.46000       -0.77450
H         -0.79560       -2.37750        0.97900
H         -3.30860       -2.30140        1.10400
H         -3.37860       -2.27520       -0.66980
H         -2.27330       -4.56480       -0.73960
