17
gdb 19947	3.87766	1.48134	1.13935	2.494	69.3	-0.2364	-0.0252	0.2112	1036.9375	0.142281	-363.838921	-363.831252	-363.830308	-363.871768	28.045
O         -0.14450       -0.02930        0.12180
C         -0.10710        1.16540        0.09920
C         -1.15760        2.27590        0.25990
C          0.01650        3.26530        0.52450
C          1.05290        2.19250        0.04730
C          2.28220        1.91310        0.86480
C          3.45830        1.24510        0.25690
N          3.53170        2.66540        0.64300
H         -1.68800        2.46610       -0.67920
H         -1.89770        2.12470        1.04940
H         -0.00030        4.19910       -0.03820
H          0.13390        3.49550        1.58600
H          1.32990        2.35710       -1.00320
H          2.08450        1.72680        1.91910
H          4.07050        0.57520        0.85310
H          3.40660        0.98920       -0.79840
H          3.43800        3.25110       -0.18410
