14
gdb 464	6.77781	3.51016	2.61055	1.4505	55.	-0.2302	0.0182	0.2484	531.8706	0.120101	-270.437636	-270.4318	-270.430856	-270.466917	21.19
C          0.10070        1.54290       -0.05600
C         -0.04800        0.02610        0.06630
O          0.53110       -0.61500       -1.07780
C          1.47880       -1.59820       -0.67600
C          1.54060       -1.49530        0.82230
C          0.67150       -0.58410        1.24160
H          1.15780        1.82410       -0.06590
H         -0.36150        1.89190       -0.98370
H         -0.38970        2.04750        0.78330
H         -1.12420       -0.21800        0.10000
H          1.15530       -2.59830       -1.00970
H          2.44940       -1.39890       -1.15640
H          2.20210       -2.09810        1.43160
H          0.47570       -0.29080        2.26540
