20
gdb 12376	2.86462	1.98627	1.28715	2.8632	74.66	-0.2332	-0.0091	0.2242	994.0905	0.178537	-349.05524	-349.047299	-349.046355	-349.087361	30.524
C         -0.09300        1.54980        0.01340
C          0.06130        0.03040        0.02250
C          0.75350       -0.51220       -1.25120
C          0.92540       -2.03580       -1.22080
C          1.71050       -2.47970        0.01930
C          1.04400       -1.97120        1.31340
C          0.80630       -0.46750        1.26280
O          1.18870        0.27730        2.13650
H          0.88480        2.03920       -0.02740
H         -0.67590        1.87280       -0.85480
H         -0.59210        1.90030        0.91970
H         -0.93610       -0.43630        0.06660
H          0.17420       -0.20720       -2.13000
H          1.73830       -0.03450       -1.34830
H         -0.06310       -2.51540       -1.21890
H          1.43400       -2.37410       -2.13030
H          1.79990       -3.57070        0.05310
H          2.73290       -2.08370       -0.03650
H          0.06770       -2.46320        1.42890
H          1.64050       -2.19780        2.20020
