18
gdb 6975	2.51072	2.28118	1.61175	0.9999	68.71	-0.244	0.0211	0.265	875.0741	0.15247	-384.946712	-384.938247	-384.937303	-384.97906	32.192
C          0.33150        1.48540       -0.12130
C         -0.02140       -0.00190       -0.01650
O         -1.43180       -0.15960        0.17190
C          0.49670       -0.79850       -1.19920
C          1.53860       -1.56390       -0.88220
C          1.91380       -1.42230        0.57210
C          0.67370       -0.71510        1.17490
O          0.96200        0.20300        2.21350
H          1.41200        1.63480       -0.19390
H         -0.12650        1.91850       -1.01920
H         -0.03260        2.01760        0.76000
H         -1.88080        0.44070       -0.43220
H          0.05110       -0.70420       -2.18420
H          2.08180       -2.20290       -1.57020
H          2.13650       -2.37960        1.05840
H          2.79860       -0.78450        0.70290
H         -0.04190       -1.47460        1.51750
H          1.21340       -0.29830        2.99440
