15
gdb 21051	3.95041	1.76166	1.23112	2.9791	64.6	-0.1994	0.0426	0.242	936.8626	0.12022	-396.000048	-395.992147	-395.991203	-396.032083	28.988
C          0.06010        1.37530       -0.07300
N          0.06800       -0.06290        0.01870
N         -0.01540       -0.82710       -1.11780
C          0.02420       -2.07000       -0.66860
O         -0.02140       -3.12480       -1.51090
C          0.10650       -2.15300        0.73610
C          0.12390       -0.82680        1.13720
N          0.26070       -0.24410        2.40180
H          0.60800        1.79040        0.77660
H          0.55720        1.66470       -1.00020
H         -0.95800        1.78580       -0.08060
H         -0.07790       -2.76280       -2.40420
H          0.13600       -3.03410        1.35430
H          0.32760       -0.94800        3.12480
H         -0.49100        0.39520        2.63440
