15
gdb 17749	4.10051	2.58481	2.14612	0.537	62.16	-0.2444	0.0634	0.3077	681.2809	0.119589	-362.569063	-362.563275	-362.562331	-362.598579	23.666
C         -0.00740        1.45990       -0.07600
C         -0.04950       -0.03500       -0.02540
O          0.25060       -0.71730       -1.27360
C         -0.40100       -1.86370       -0.69000
C          0.36540       -2.22990        0.60850
C          0.63380       -0.85700        1.10690
N         -0.61810       -1.56950        1.53480
C         -1.24970       -0.98680        0.26310
H          1.01020        1.80470       -0.28920
H         -0.67020        1.84050       -0.85770
H         -0.31750        1.88070        0.88520
H         -0.73090       -2.61690       -1.40140
H          0.91540       -3.12030        0.88440
H          1.41270       -0.57980        1.80630
H         -2.31190       -0.75980        0.20500
