14
gdb 17304	3.23832	2.54961	1.93536	3.2598	56.	-0.2435	0.0436	0.2871	710.6304	0.106296	-419.58627	-419.579934	-419.57899	-419.616379	24.975
O         -0.09250        1.42990       -0.06740
C          0.03450        0.05040        0.01380
C         -1.28890       -0.73630        0.05490
O         -0.86170       -1.47350        1.23190
C          0.38890       -0.77720        1.28330
C          1.56310       -1.43240        0.48810
O          1.01170       -2.04470       -0.67940
C          1.23240       -0.63730       -0.71550
H          0.77820        1.83330        0.02200
H         -2.14850       -0.09390        0.27570
H         -1.50050       -1.39620       -0.78990
H          0.63540       -0.34800        2.25780
H          2.50660       -1.82500        0.85130
H          1.84960       -0.23990       -1.51580
