12
gdb 8757	4.33505	1.45126	1.09481	1.5936	58.68	-0.2937	-0.0953	0.1984	974.8437	0.082537	-414.708012	-414.69991	-414.698966	-414.741154	26.826
C         -0.02690        1.48100       -0.01280
N         -0.00600        0.01400        0.00100
C         -0.00620       -0.65860        1.23700
O         -0.02290       -0.08490        2.29400
C          0.01420       -0.73870       -1.16090
O          0.03070       -1.94520       -1.21740
C          0.01110        0.06590       -2.39690
N          0.00980        0.65020       -3.39350
H          0.86260        1.87650       -0.50770
H         -0.91930        1.85090       -0.52230
H         -0.04010        1.80090        1.02790
H          0.01050       -1.74800        1.11080
