19
gdb 18727	3.17403	2.15518	1.4549	1.4274	72.06	-0.2035	0.0848	0.2883	902.6499	0.166753	-365.027186	-365.01974	-365.018796	-365.058699	28.943
C          0.06420        1.40410       -0.07810
N         -0.06070       -0.02830        0.09330
C         -1.41900       -0.54250        0.00670
C         -1.35670       -2.06510       -0.03800
O         -0.79950       -2.61710        1.14760
C          0.27230       -1.91940        1.70700
C          1.60480       -1.70210        1.02980
C          0.64250       -0.53710        1.24660
H          1.12280        1.67990       -0.11770
H         -0.39910        1.70430       -1.02380
H         -0.40940        1.99060        0.73250
H         -2.06180       -0.22010        0.84830
H         -1.87660       -0.17760       -0.91990
H         -2.35840       -2.49650       -0.12420
H         -0.77050       -2.36920       -0.91840
H          0.30020       -2.11140        2.77490
H          2.50000       -1.78610        1.63740
H          1.71440       -2.01370       -0.00260
H          0.87790        0.19990        2.01480
