14
gdb 8724	2.59169	1.85341	1.19675	2.4321	70.12	-0.2588	-0.0639	0.1949	988.8969	0.102875	-345.346996	-345.338099	-345.337154	-345.380864	31.358
C          0.00130        1.74020        0.83800
C         -0.13160        0.42750        0.05120
C          0.62070       -0.66870        0.65630
C          1.22570       -1.56200        1.18550
C         -1.61290        0.01690       -0.10630
O         -2.51460        0.64350        0.39810
C         -1.85460       -1.15490       -0.92660
C         -2.05750       -2.10620       -1.63500
H          1.05210        2.03060        0.90150
H         -0.56270        2.53500        0.34490
H         -0.39330        1.62130        1.84880
H          0.24500        0.57340       -0.97260
H          1.76560       -2.35360        1.64340
H         -2.24540       -2.95040       -2.25330
