14
gdb 19218	3.15298	2.02424	1.44892	3.1826	68.36	-0.2381	-0.0173	0.2208	855.907	0.106103	-345.356661	-345.349608	-345.348664	-345.387967	26.736
O         -0.07530        0.02430       -0.12430
C         -0.10110        1.20850        0.02330
C         -1.16080        2.25600       -0.05400
C         -1.00810        3.21870        1.12350
C         -0.06380        3.35050       -0.01090
C          1.05320        2.29000        0.11370
C          1.92830        2.31810        1.26460
C          2.63190        2.32650        2.23990
H         -2.08130        2.19880       -0.62080
H         -1.80200        3.95570        1.18080
H         -0.65790        2.85690        2.08500
H         -0.00190        4.22650       -0.64190
H          1.62940        2.20310       -0.81520
H          3.26100        2.33320        3.09530
