10
gdb 23856	3.42393	2.37679	1.40292	1.4443	54.65	-0.2779	-0.0913	0.1866	760.5596	0.059784	-454.663499	-454.657535	-454.656591	-454.693809	21.984
F          0.04710        0.09710        0.18550
C          0.02380        1.41150        0.04790
N         -1.12610        1.95670       -0.02970
O         -1.17280        3.33270       -0.17430
N         -0.03530        4.11000       -0.23520
C          1.10710        3.53220       -0.15440
C          1.31000        2.09720       -0.00080
N          2.47550        1.57690        0.07440
H          1.97320        4.18510       -0.20710
H          2.40730        0.56200        0.17930
