16
gdb 17898	3.95238	1.98641	1.76911	1.4043	59.38	-0.2425	0.0675	0.31	779.5469	0.132156	-420.839796	-420.833305	-420.832361	-420.870018	25.918
O         -0.06010        1.37450       -0.06430
C          0.01540       -0.03180       -0.01810
C          0.15080       -0.63920        1.41760
C         -1.37940       -0.41750        1.56910
C         -1.41280       -0.64420        0.03150
O         -1.29720       -2.02910       -0.29490
C         -0.61250       -2.74630        0.71100
O          0.46940       -2.02260        1.26180
H          0.81800        1.72860        0.11040
H          0.68630       -0.45710       -0.77380
H          0.85550       -0.21280        2.13530
H         -1.96230       -1.05940        2.23050
H         -1.58150        0.63020        1.78960
H         -2.20290       -0.21450       -0.58540
H         -1.31440       -3.03030        1.50970
H         -0.20270       -3.64850        0.25040
