10
gdb 21848	8.40997	1.22404	1.07841	1.5072	50.63	-0.3074	-0.0684	0.239	964.7808	0.059711	-450.561793	-450.555422	-450.554478	-450.593229	21.524
O         -0.04220       -0.01190        0.13320
C         -0.03250        1.15920       -0.04390
O          1.09260        1.90800        0.27080
C          1.02260        3.25060        0.16430
N         -0.06720        3.95730        0.29040
O          0.33730        5.25460        0.12270
N          1.68420        5.33920       -0.08970
C          2.12730        4.11520       -0.07010
H         -0.83930        1.77750       -0.46210
H          3.16880        3.87710       -0.21370
