12
gdb 5030	3.55554	2.3698	1.42377	4.4578	59.82	-0.2245	-0.0423	0.1822	786.0709	0.085867	-414.703439	-414.697066	-414.696121	-414.73386	24.188
N          0.01960        1.37500        0.13720
C         -0.05260        0.00770        0.04390
C         -1.17760       -0.73900        0.01200
O         -1.12350       -2.10870       -0.01970
C          0.08690       -2.67750       -0.01690
N          1.22160       -2.08910       -0.00590
C          1.25600       -0.69090        0.00700
O          2.29500       -0.05860       -0.02160
H          0.94390        1.72060       -0.08760
H         -0.74870        1.92290       -0.21530
H         -2.19590       -0.37590        0.01430
H          0.00370       -3.76040       -0.02920
