16
gdb 11739	4.88928	1.33327	1.20318	3.1957	65.9	-0.2439	-0.012	0.2319	996.8107	0.129942	-383.725009	-383.717436	-383.716492	-383.757101	28.312
O          0.18830        1.34850        0.10790
C          0.05800       -0.04790       -0.11630
C         -1.37140       -0.50240       -0.07450
C         -2.07110       -0.94320        1.16540
C         -1.90440       -1.96010        0.03980
C         -2.88010       -1.64990       -1.05670
O         -3.59560       -2.32590       -1.73930
C         -2.43060       -0.16650       -1.14190
H         -0.18560        1.54070        0.97440
H          0.48380       -0.22340       -1.11020
H          0.65300       -0.63230        0.60390
H         -1.44510       -1.15410        2.02800
H         -3.05790       -0.56230        1.41460
H         -1.37980       -2.89380        0.20290
H         -3.15990        0.60930       -0.89320
H         -2.01130        0.04130       -2.13100
