16
gdb 798	4.37128	1.2263	0.96903	0.	71.35	-0.2278	-0.0326	0.1952	1148.5611	0.127289	-416.988831	-416.979509	-416.978565	-417.023066	32.871
C          0.00030        1.51790       -0.00510
C          0.05320        0.01470       -0.00770
N          0.18970       -0.68840        1.06140
O          0.27990        0.11580        2.19630
C         -0.05120       -0.75050       -1.26460
C          0.00170       -2.25380       -1.26730
N         -0.18770       -0.04740       -2.33380
O         -0.27790       -0.85160       -3.46870
H          0.91490        1.92060        0.44120
H         -0.11860        1.90420       -1.01450
H         -0.82860        1.85900        0.62300
H          0.37650       -0.53390        2.90110
H         -0.91310       -2.65640       -1.71340
H          0.83030       -2.59480       -1.89570
H          0.12090       -2.64010       -0.25790
H         -0.37460       -0.20200       -4.17340
