14
gdb 13477	3.35217	1.86922	1.26392	2.5921	59.19	-0.2395	-0.0421	0.1974	905.2494	0.106988	-415.878246	-415.870655	-415.869711	-415.91061	27.569
N          0.05560        1.16580        0.49070
C          0.14100       -0.07430       -0.06820
O          1.11910       -0.52020       -0.62440
C         -1.18110       -0.84950        0.01100
N         -1.07940       -2.31400        0.19330
C         -2.10080       -2.33120        1.27310
C         -1.99630       -0.80310        1.31130
O         -2.32300        0.07320        2.05880
H          0.89680        1.71910        0.53260
H         -0.70510        1.38880        1.11680
H         -1.80550       -0.52250       -0.83610
H         -1.30620       -2.86190       -0.62630
H         -3.10890       -2.66000        0.98140
H         -1.80370       -2.86600        2.18160
