17
gdb 8733	2.41447	1.86566	1.11072	4.1232	74.01	-0.2733	0.0294	0.3027	1063.8191	0.139788	-326.714429	-326.705193	-326.704249	-326.748199	33.165
C          0.04070        1.56280        0.01300
C          0.02050        0.02120        0.02380
C          0.72560       -0.48770        1.19830
C          1.28970       -0.88110        2.18350
C         -1.43500       -0.54800       -0.02830
C         -2.24420       -0.05360       -1.24340
C         -1.40630       -2.01540       -0.02570
N         -1.40200       -3.17050       -0.05930
H          1.06780        1.91860        0.11960
H         -0.36180        1.96110       -0.92110
H         -0.54240        1.96480        0.84750
H          0.53890       -0.33870       -0.87490
H          1.79450       -1.24940        3.04230
H         -1.94330       -0.23410        0.89170
H         -1.72310       -0.28280       -2.17780
H         -3.22040       -0.54300       -1.27230
H         -2.40590        1.02450       -1.18760
