13
gdb 5158	5.43323	1.44869	1.34384	3.6676	61.3	-0.2378	-0.0004	0.2375	902.877	0.097294	-394.802469	-394.795422	-394.794478	-394.834933	24.529
N          0.02760        1.03010       -0.76450
C          0.00490        0.03160        0.01780
N         -1.17550       -0.52220        0.48120
C         -2.42820        0.00350        0.20890
C         -3.48270       -0.41250       -0.53230
N         -4.52070        0.50070       -0.41580
C         -4.04420        1.41280        0.36940
O         -2.78930        1.19220        0.80600
H          0.98580        1.27110       -1.00560
H          0.87670       -0.50970        0.40520
H         -1.10370       -1.25190        1.17150
H         -3.56250       -1.29850       -1.14120
H         -4.52390        2.31840        0.70710
