17
gdb 19692	5.38391	1.60848	1.46186	2.2238	67.5	-0.2332	0.0805	0.3137	894.3936	0.142879	-363.772473	-363.765617	-363.764673	-363.803554	26.222
C          0.16980        1.34290        0.01610
O         -0.18110       -0.00510        0.24070
C          0.62110       -0.64080        1.20310
C          0.19050       -2.09980        1.31260
C          1.19660       -2.52700        0.31280
C          1.97370       -1.19860        0.66040
C          2.49910       -1.97190        1.87670
N          1.35950       -2.94420        1.73350
H          1.18590        1.44710       -0.39210
H         -0.54190        1.74370       -0.70940
H          0.10760        1.93700        0.94100
H          0.67590       -0.03120        2.12000
H         -0.79730       -2.48990        1.51760
H          1.16700       -3.20610       -0.52780
H          2.60610       -0.59610        0.01120
H          3.43350       -2.50840        1.69430
H          2.55310       -1.45120        2.84100
