18
gdb 11510	4.81959	1.14062	0.97983	1.3193	74.88	-0.2428	0.0386	0.2814	1203.7192	0.150731	-347.741015	-347.73211	-347.731166	-347.774987	32.659
C         -0.47470        1.44810       -0.14710
C         -0.05710       -0.02550       -0.02340
O         -1.17650       -0.90720        0.08220
C         -1.75950       -0.95130        1.34930
C         -2.97380       -0.10960        1.66100
C         -3.09990       -1.60310        1.43070
C          0.73100       -0.45070       -1.18060
C          1.39360       -0.76250       -2.13260
H          0.41060        2.08030       -0.25770
H         -1.11200        1.58210       -1.02480
H         -1.02160        1.76430        0.74380
H          0.56780       -0.13870        0.87820
H         -1.04930       -1.13570        2.15680
H         -3.09590        0.28020        2.66600
H         -3.33830        0.53730        0.87160
H         -3.53530       -1.92080        0.49030
H         -3.31030       -2.25210        2.27310
H          1.97710       -1.05170       -2.97130
