18
gdb 6766	7.28262	0.70669	0.65466	1.2169	65.85	-0.2668	0.0183	0.2852	1665.0118	0.151074	-422.110686	-422.100708	-422.099764	-422.147328	32.921
C         -0.19490        1.43910        0.01170
C          0.05880       -0.04950        0.00110
O          1.14120       -0.57890       -0.01210
O         -1.10650       -0.73110        0.00850
C         -0.99090       -2.16530       -0.00040
C         -2.39820       -2.73800        0.01020
C         -2.39700       -4.26200        0.00200
O         -3.74910       -4.69000        0.01260
H          0.75670        1.96900        0.00510
H         -0.78830        1.72490       -0.86140
H         -0.77080        1.71540        0.89950
H         -0.42930       -2.47260       -0.88940
H         -0.41200       -2.48220        0.87400
H         -2.93450       -2.38650        0.89810
H         -2.95170       -2.37700       -0.86310
H         -1.86770       -4.63110       -0.89190
H         -1.85070       -4.64070        0.88150
H         -3.76040       -5.65150        0.00830
