15
gdb 4770	4.59276	1.45133	1.11813	2.7234	63.55	-0.2389	0.0026	0.2415	1028.7965	0.118691	-399.835056	-399.827124	-399.82618	-399.868005	27.701
C         -0.32740        1.38270        0.13220
C         -0.09230       -0.08270       -0.00400
C          0.35740       -0.79820       -1.06110
O          0.40660       -2.12490       -0.70110
C         -0.02340       -2.13710        0.57560
C         -0.10940       -3.42900        1.32420
O         -0.58020       -3.21800        2.63090
N         -0.33290       -0.97290        1.04700
H          0.28260        1.80230        0.93900
H         -0.08100        1.90740       -0.79420
H         -1.37460        1.58870        0.37720
H          0.66600       -0.56160       -2.06440
H         -0.77370       -4.11840        0.77980
H          0.88460       -3.90280        1.34210
H         -0.73170       -2.26680        2.72030
