15
gdb 16193	3.22896	2.44596	1.56556	4.6701	68.91	-0.2141	-0.0274	0.1867	801.2249	0.12026	-362.684684	-362.677986	-362.677042	-362.715319	26.142
O          0.12850       -0.00790       -0.01320
C          0.01340        1.20450        0.00090
C         -1.17140        2.05330        0.03430
C         -0.75710        3.34710        0.03470
N          0.60370        3.49090       -0.09360
C          1.18240        2.17290       -0.03220
C          2.44780        1.85260        0.72650
C          2.43930        1.78570       -0.77240
H         -2.19120        1.70300        0.05000
H         -1.36890        4.23900        0.09560
H          1.06580        4.26990        0.35040
H          2.97340        2.67400        1.20310
H          2.43600        0.92020        1.28120
H          2.41760        0.80560       -1.23690
H          2.95070        2.56530       -1.32570
