12
gdb 21652	7.45929	1.3476	1.14251	2.0185	61.09	-0.2304	-0.0754	0.155	950.0137	0.086185	-410.879179	-410.872426	-410.871482	-410.91011	24.515
N         -0.36500        1.31690        0.41340
C         -0.04570        0.01190        0.12300
N         -0.91320       -0.82730       -0.45930
N         -0.21100       -1.97790       -0.48240
C          1.00870       -1.80180        0.05820
C          1.99120       -2.88350        0.16250
O          1.77060       -4.00790       -0.23100
N          1.14940       -0.54020        0.45510
H          0.43670        1.92280        0.49940
H         -1.10700        1.70160       -0.15160
H         -0.59860       -2.82420       -0.86840
H          2.94820       -2.58460        0.63020
