19
gdb 12266	3.35411	1.39398	1.11642	2.5105	72.89	-0.2397	-0.022	0.2177	1135.6709	0.164101	-365.068298	-365.059357	-365.058413	-365.102182	32.161
C          0.14350        1.48480        0.18150
C         -0.04180       -0.02630        0.02210
C          0.57500       -0.55970       -1.26640
N          2.06690       -0.54430       -1.33350
C          2.14930       -1.96430       -1.78780
C          3.12740       -2.85620       -1.03840
C          0.65070       -2.08420       -1.45680
O         -0.11630       -2.99170       -1.32880
H          1.20710        1.74390        0.18220
H         -0.33810        2.03370       -0.63590
H         -0.28910        1.83920        1.12190
H          0.41670       -0.54840        0.86950
H         -1.10700       -0.28700        0.02350
H          0.08850       -0.09220       -2.13830
H          2.44470        0.12170       -1.99700
H          2.29450       -2.07010       -2.87480
H          2.98730       -2.75530        0.04100
H          2.97110       -3.90310       -1.31710
H          4.16130       -2.58700       -1.27560
