14
gdb 969	3.68209	3.27141	1.75124	1.4469	60.22	-0.1779	0.0499	0.2278	693.774	0.113648	-324.612512	-324.605191	-324.604247	-324.644231	26.031
C         -0.02450        1.52340        0.09760
C          0.01740        0.03800       -0.01390
C          0.05250       -0.77600       -1.12560
O          0.05400       -0.29230       -2.40740
C          0.08480       -2.13310       -0.69940
C          0.06850       -2.11490        0.67790
N          0.02800       -0.80920        1.07970
H          0.84390        1.93060        0.63220
H         -0.02670        1.95660       -0.90520
H         -0.92410        1.88190        0.61510
H          0.08130       -1.03810       -3.01210
H          0.11610       -3.01150       -1.32720
H          0.08230       -2.92160        1.39250
H          0.00850       -0.49960        2.03510
