16
gdb 18437	2.96305	2.12121	1.60252	3.3238	68.31	-0.2564	0.0085	0.2649	843.5682	0.131485	-342.750243	-342.742994	-342.74205	-342.781535	27.312
C         -0.23370        1.57490       -0.01710
C          0.02370        0.07430        0.02760
C          1.10500       -0.60210       -0.86570
N          1.68560       -1.35550        0.31230
C          2.22240       -0.33430        1.24610
C          2.88350        0.86200        0.79000
N          3.44920        1.80560        0.43150
C          0.75290       -0.56890        1.20880
H          0.68380        2.15490        0.10070
H         -0.68650        1.85350       -0.97450
H         -0.92940        1.87120        0.77540
H         -0.92230       -0.45870       -0.10850
H          0.71270       -1.31380       -1.59260
H          1.82470        0.05770       -1.35800
H          2.73850       -0.80210        2.08060
H          0.27420       -1.02540        2.07070
