16
gdb 8734	3.7275	1.28292	1.17467	2.3613	70.83	-0.2678	0.0211	0.2889	1056.3897	0.129093	-342.757018	-342.747916	-342.746972	-342.790535	32.677
C         -0.06270        1.58820       -0.06980
C          0.04830        0.05270       -0.01800
C          0.68180       -0.48550       -1.21850
C          1.18710       -0.92970       -2.21380
C          0.80030       -0.44750        1.25570
N          2.14460        0.11440        1.34490
C         -0.02280       -0.18330        2.45820
N         -0.63400        0.05110        3.41180
H          0.92410        2.04610       -0.17600
H         -0.66280        1.89020       -0.93090
H         -0.54330        1.96940        0.83630
H         -0.96700       -0.35950        0.04750
H          1.63660       -1.32060       -3.09300
H          0.90180       -1.53360        1.16410
H          2.10390        1.09020        1.62160
H          2.67810       -0.36820        2.06050
