17
gdb 20941	7.16636	1.09964	0.97256	1.4371	71.69	-0.1896	0.0351	0.2247	1194.0315	0.144361	-360.061672	-360.053733	-360.052789	-360.094667	28.892
C          0.01710        1.53630       -0.02610
C         -0.12610        0.02170       -0.13620
N          0.84820       -0.51640       -1.07530
C          0.86510       -1.88220       -1.32020
N          1.28780       -2.34610       -2.49680
N          1.23380       -3.69520       -2.35950
C          0.78080       -4.08600       -1.15050
C          0.52360       -2.93710       -0.43230
H          1.02910        1.80800        0.28810
H         -0.18080        2.02200       -0.98870
H         -0.69460        1.93890        0.70010
H          0.05730       -0.43190        0.84490
H         -1.16200       -0.23870       -0.41390
H          0.90950        0.00890       -1.93810
H          1.51150       -4.27100       -3.13390
H          0.67600       -5.12790       -0.89120
H          0.15320       -2.87220        0.57660
