17
gdb 17487	3.48167	2.509	1.95583	0.7078	66.46	-0.2307	0.0875	0.3182	749.8138	0.143533	-363.819291	-363.812852	-363.811907	-363.849362	26.131
C          0.03560        1.49120        0.11820
C         -0.02230       -0.00830       -0.00990
C          0.23860       -0.70100       -1.37590
N         -0.91680       -1.64230       -1.17010
C         -0.82440       -2.13840        0.23650
C          0.49500       -2.00910        0.98260
O          0.78580       -0.60950        1.00130
C         -1.36360       -0.79270       -0.00540
H          1.06140        1.84580       -0.02070
H         -0.60120        1.96810       -0.63190
H         -0.29960        1.80090        1.11270
H          0.01130       -0.06400       -2.23450
H          1.21760       -1.17080       -1.51750
H         -1.47210       -2.98580        0.43040
H          0.40470       -2.36860        2.01420
H          1.30670       -2.56920        0.49780
H         -2.37930       -0.44340        0.13480
