16
gdb 10894	2.96264	1.96825	1.51096	3.8886	65.73	-0.2336	-0.0089	0.2246	877.2992	0.128692	-383.727563	-383.719591	-383.718646	-383.759669	29.569
C         -0.10280        1.61970       -0.00980
C          0.06500        0.10620        0.01290
C          1.13620       -0.59410       -0.87180
O          1.29290       -0.63370       -2.06120
C          1.75130       -1.31290        0.28310
C          2.12800       -0.28520        1.36630
C          0.69510       -0.61110        1.21440
O         -0.12050       -1.12750        2.19330
H          0.82330        2.13740        0.25860
H         -0.38670        1.94790       -1.01430
H         -0.88430        1.94160        0.68550
H         -0.88830       -0.38680       -0.21790
H          2.19080       -2.30290        0.28590
H          2.62230       -0.75060        2.21680
H          2.54490        0.68350        1.10280
H          0.39140       -1.26320        2.99680
