16
gdb 9836	3.97578	1.55321	1.24084	1.8282	62.4	-0.249	0.0086	0.2576	987.1423	0.128356	-420.892378	-420.883734	-420.88279	-420.925735	30.659
C         -0.00550        1.32920       -0.06110
O          0.01980       -0.10170        0.02890
C          0.67550       -0.60070        1.09960
O          1.21610        0.08320        1.93410
C          0.68140       -2.09540        1.07450
O         -0.15250       -2.72600        0.15400
C          2.01690       -2.74690        1.42400
C          0.86390       -2.80570        2.38620
H          1.00960        1.72780       -0.12980
H         -0.57090        1.56040       -0.96370
H         -0.49300        1.75800        0.81750
H         -0.09670       -2.23150       -0.67110
H          2.24990       -3.64120        0.85800
H          2.84930       -2.09470        1.65990
H          0.90830       -2.18930        3.27560
H          0.32700       -3.74250        2.47780
