15
gdb 8328	6.29089	1.28048	1.27122	1.8951	61.82	-0.2545	0.0263	0.2808	956.7393	0.118917	-399.794862	-399.787722	-399.786778	-399.826821	26.185
O          0.11280       -0.06280        0.00160
C         -0.00530        1.13030        0.00940
C         -1.17330        2.14790        0.03170
C         -0.07000        3.24130        0.02110
C         -0.04560        4.38790       -1.01180
O         -0.15310        5.37410        0.03320
C         -0.01520        4.37730        1.06450
N          0.90780        2.16370        0.00130
H         -1.81320        2.11960       -0.85230
H         -1.78710        2.11050        0.93350
H          0.89830        4.47150       -1.56800
H         -0.88370        4.43390       -1.71690
H         -0.83240        4.41590        1.79430
H          0.94450        4.45540        1.59370
H          1.91780        2.16900       -0.01340
