11
gdb 1199	10.17342	1.10755	1.00502	3.0502	71.03	-0.2627	-0.079	0.1837	1072.1874	0.075267	-306.080007	-306.072425	-306.071481	-306.112041	25.723
C          0.00460        1.50060       -0.02120
C         -0.02670       -0.01020        0.06190
O         -0.06350       -0.62110        1.10850
C         -0.01000       -0.70690       -1.21230
C          0.00360       -1.30130       -2.26980
C          0.01890       -1.96200       -3.45570
C          0.03270       -2.55010       -4.51050
H          0.90400        1.82980       -0.55280
H         -0.85590        1.86400       -0.59330
H         -0.01040        1.92030        0.98560
H          0.04470       -3.06730       -5.43830
