16
gdb 5689	4.71865	2.03605	1.45932	1.9035	71.48	-0.1642	0.0492	0.2134	834.3308	0.135056	-342.807769	-342.801406	-342.800462	-342.837974	25.371
C          0.03080        1.43570        0.08670
C          1.51020        1.89780       -0.11970
C          2.19060        0.57720        0.04990
C          1.30880       -0.46220       -0.07030
N         -0.01280       -0.00520       -0.29580
C          2.03980       -1.67820       -0.07870
C          3.37230       -1.31510        0.02800
N          3.46190        0.05800        0.07630
H         -0.23160        1.56760        1.14660
H         -0.67590        2.01470       -0.51400
H          1.65650        2.31820       -1.12590
H          1.78510        2.67720        0.59940
H         -0.72000       -0.50820        0.22750
H          1.66710       -2.68800       -0.14930
H          4.25730       -1.92710        0.09980
H          4.31500        0.57300        0.19980
