16
gdb 7002	2.57695	2.07701	1.5723	3.4833	60.56	-0.2586	0.0042	0.2628	880.9209	0.128149	-420.908299	-420.899792	-420.898848	-420.940955	30.732
C         -0.33790        1.48380       -0.05390
C          0.10930        0.04270        0.00240
O          1.37390       -0.17310       -0.73390
C          1.97410       -0.75290        0.34670
O          3.05910       -1.23710        0.41960
C          0.75860       -0.55450        1.27900
C          0.99610        0.34050        2.48460
O          0.11830       -1.76440        1.62960
H          0.43810        2.16310        0.30780
H         -0.57930        1.76100       -1.08400
H         -1.23760        1.62250        0.55420
H         -0.64880       -0.63730       -0.39320
H          1.46370        1.28920        2.20850
H          0.04990        0.54370        2.99440
H          1.66780       -0.16360        3.18760
H          0.71640       -2.26160        2.19980
