14
gdb 7726	3.50669	1.95679	1.2974	3.8198	59.2	-0.2602	-0.0115	0.2487	875.8482	0.110387	-415.951959	-415.945209	-415.944265	-415.983106	25.189
O         -0.00190       -0.07580       -0.07270
C         -0.05530        1.12830        0.01940
C         -1.34800        1.92540        0.09170
C         -1.16640        3.24400        0.84220
N         -0.00990        3.94520        0.30150
C          1.18530        3.31120        0.08490
O          2.24610        3.87630       -0.06820
N          1.08930        1.91070        0.03230
H         -1.66310        2.12440       -0.93990
H         -2.10800        1.29570        0.55660
H         -2.04730        3.87810        0.71510
H         -1.05240        3.05020        1.91950
H          0.09470        4.93020        0.48970
H          1.96980        1.43230       -0.10290
