15
gdb 20784	4.86672	1.89645	1.4718	3.8606	66.52	-0.2526	0.0211	0.2737	840.4113	0.121481	-358.835713	-358.829131	-358.828187	-358.866779	24.299
C         -0.34020        1.63420       -0.19690
C          0.05260        0.18560        0.01330
C          0.80690       -0.56950       -1.16990
C          1.95150       -0.70080       -0.17670
N          3.12390       -1.14200        0.24250
C          3.10190       -0.67620        1.53790
N          2.01150       -0.00620        1.93250
N          1.30860       -0.04090        0.77750
H          0.49130        2.20860       -0.61550
H         -1.18900        1.69420       -0.88520
H         -0.63680        2.09540        0.74950
H         -0.77460       -0.39930        0.42590
H          0.34040       -1.50590       -1.48230
H          1.00240        0.05410       -2.04510
H          3.92610       -0.83460        2.21790
