17
gdb 3333	4.03519	3.18094	2.18294	0.3615	68.45	-0.2209	0.0256	0.2465	660.6697	0.151545	-272.588302	-272.582429	-272.581485	-272.617557	23.936
C         -0.04450        1.49300       -0.14390
C          1.28630        0.81520        0.01700
C          2.08200        0.86190        1.30890
C          1.21280        0.76050        2.57950
C          0.13990       -0.29250        2.46020
C         -0.38910       -0.64270        1.28540
C          0.02340       -0.02390        0.00220
H         -0.46040        2.04700        0.69060
H         -0.29670        1.89790       -1.11820
H          1.89760        0.76340       -0.87980
H          2.78390        0.01810        1.29950
H          2.69050        1.77290        1.35080
H          1.85560        0.55120        3.44220
H          0.75310        1.73620        2.79250
H         -0.21320       -0.75920        3.37560
H         -1.16430       -1.40340        1.24240
H         -0.18890       -0.59990       -0.89260
