11
gdb 20484	5.23598	2.19599	1.56378	3.5441	52.15	-0.2374	-0.0071	0.2303	718.7169	0.073792	-434.491703	-434.486033	-434.485089	-434.522208	20.563
C          0.02300        1.39700       -0.12060
O          1.36740        1.87690        0.10450
C          2.02300        0.80770        0.63060
C          3.18800        0.37060        1.14460
O          3.03750       -0.95830        1.44350
N          1.73250       -1.40010        1.11390
C          1.18930       -0.32030        0.64220
O         -0.02570       -0.02550        0.13370
H         -0.66080        1.90360        0.56970
H         -0.25240        1.58030       -1.16240
H          4.15230        0.79700        1.36010
