15
gdb 4126	3.83782	1.64542	1.3016	1.1501	65.87	-0.2311	0.0128	0.2439	926.3244	0.117434	-399.717868	-399.710232	-399.709288	-399.749552	28.873
O         -0.18260        1.37360       -0.05610
N          0.01190       -0.01920        0.04820
C         -1.08910       -0.63730       -0.04030
C         -2.56930       -0.26180       -0.07710
C         -2.88370       -1.75900        0.11510
C         -2.29700       -2.54350       -1.02520
C         -1.38240       -2.09460        0.10290
O         -0.70600       -2.98410        0.90580
H          0.71160        1.71060        0.06360
H         -2.83440        0.36710        0.77740
H         -2.94450        0.20330       -0.99340
H         -3.64650       -2.16180        0.76730
H         -2.49710       -3.61020       -0.99710
H         -2.22900       -2.11460       -2.02190
H          0.05720       -3.31420        0.41840
