18
gdb 8631	2.04766	1.85695	1.54942	0.5812	79.14	-0.2612	0.0326	0.2938	997.9591	0.149655	-310.604907	-310.595273	-310.594328	-310.638433	35.751
C         -0.07230        1.56790        0.10540
C          0.00700        0.04680       -0.00750
C          0.73460       -0.47940       -1.28580
C          0.73910       -2.03250       -1.26550
C          0.02890       -0.01790       -2.49150
C         -0.57760        0.33160       -3.46810
C          2.12410        0.00360       -1.30790
C          3.26800        0.37120       -1.29570
H          0.92660        2.01290        0.12960
H         -0.61470        1.99730       -0.74180
H         -0.59410        1.85470        1.02330
H          0.53570       -0.36920        0.85750
H         -1.00020       -0.38480       -0.01020
H         -0.28850       -2.40530       -1.25090
H          1.24290       -2.42710       -2.15010
H          1.26280       -2.38930       -0.37470
H         -1.09940        0.64920       -4.33680
H          4.27640        0.70430       -1.30030
