20
gdb 14999	4.29887	1.38987	1.1267	1.7359	71.26	-0.2581	0.0916	0.3497	1100.0305	0.178415	-386.152934	-386.144961	-386.144016	-386.185262	30.188
C         -0.05250        1.56530        0.00310
C          0.00890        0.03580       -0.01230
C          0.71580       -0.52670       -1.23980
C          0.84510       -2.05520       -1.23400
C          1.38440       -2.52410       -2.58840
O          0.59970       -1.99350       -3.64820
C          0.55040       -0.59380       -3.58040
O         -0.02790       -0.12350       -2.39350
H          0.95270        2.00130        0.02220
H         -0.56280        1.93800       -0.88830
H         -0.58990        1.92820        0.88430
H          0.53070       -0.33300        0.87940
H         -1.00490       -0.38140        0.01900
H          1.72890       -0.08720       -1.30920
H          1.50990       -2.38060       -0.42560
H         -0.14290       -2.49710       -1.06320
H          2.43480       -2.20570       -2.70680
H          1.34810       -3.61210       -2.68690
H          1.57250       -0.17910       -3.68770
H         -0.08260       -0.25490       -4.40310
