20
gdb 5884	3.95685	0.89165	0.86328	1.6834	80.77	-0.2467	0.0465	0.2932	1475.6086	0.173472	-348.989996	-348.979558	-348.978614	-349.026049	37.131
C          0.03610        1.55990       -0.06170
C         -0.00540        0.02360        0.03100
C         -1.36280       -0.51320        0.04960
C         -2.49580       -0.92440        0.07230
C         -3.87220       -1.44660        0.05810
C         -3.85080       -2.98510       -0.01820
C         -4.64790       -0.97050        1.29350
O         -4.59230       -0.91530       -1.06370
H          1.07140        1.91380       -0.07240
H         -0.45700        1.90740       -0.97350
H         -0.47570        2.01380        0.79110
H          0.54770       -0.41020       -0.81220
H          0.52410       -0.30350        0.93520
H         -3.34670       -3.41630        0.85160
H         -4.87700       -3.36100       -0.06080
H         -3.31900       -3.31620       -0.91550
H         -4.66530        0.12090        1.32630
H         -5.67730       -1.33620        1.23810
H         -4.18400       -1.34560        2.20880
H         -4.04650       -1.05140       -1.84560
