16
gdb 10545	3.04527	1.47532	1.11981	4.4579	66.5	-0.2386	0.0053	0.2439	1081.2518	0.129582	-379.892462	-379.883959	-379.883015	-379.925973	29.734
C          0.09410        1.44500        0.08390
N          0.26470       -0.00070        0.04040
C          0.48810       -0.52160       -1.29370
C          0.57470       -2.03320       -1.24810
C          1.52410       -2.77540       -2.10070
O          1.80120       -2.56090       -0.72000
C         -0.62290       -2.72480       -0.79650
N         -1.58470       -3.27760       -0.47370
H          0.92970        2.01370       -0.36130
H         -0.81980        1.72080       -0.45400
H         -0.02230        1.76500        1.12270
H          1.03480       -0.28070        0.63880
H         -0.35710       -0.23080       -1.93030
H          1.40680       -0.14520       -1.78030
H          1.29710       -3.80170       -2.38010
H          2.14280       -2.21520       -2.79950
