18
gdb 18323	3.16383	2.18627	1.54362	2.9172	70.49	-0.2316	-0.0156	0.216	860.8032	0.155638	-347.829227	-347.822261	-347.821317	-347.860972	26.938
O         -0.14940        0.13710        0.34190
C         -0.09200        1.31270        0.08490
C         -1.29140        2.26560       -0.02270
C         -0.79780        3.43920       -0.88620
C          0.71940        3.52100       -0.62530
C          1.17060        4.08170        0.75870
C          1.82670        2.71440        1.09910
C          1.18800        2.10060       -0.18850
H         -2.16880        1.74350       -0.40970
H         -1.54040        2.59220        0.99600
H         -0.97690        3.21830       -1.94490
H         -1.30750        4.38140       -0.66260
H          1.26120        3.96130       -1.46410
H          1.84990        4.93610        0.72320
H          0.33480        4.34630        1.41340
H          2.91700        2.73510        1.04070
H          1.54560        2.24720        2.04640
H          1.85780        1.52290       -0.82770
