19
gdb 3018	4.0252	1.97773	1.55327	1.1516	67.92	-0.2484	0.0851	0.3334	874.8811	0.170331	-310.898648	-310.890301	-310.889357	-310.93135	30.062
C          0.05560        1.48700       -0.08100
O         -0.17620        0.10610       -0.21670
C          0.63900       -0.54830       -1.18130
C          2.05070       -0.80900       -0.64400
C         -0.05270       -1.84160       -1.57450
C         -0.83560       -2.63940       -0.56280
C         -1.55080       -1.92340       -1.68420
H          1.05450        1.71320        0.31970
H         -0.05640        2.01440       -1.04140
H         -0.69070        1.87110        0.61940
H          0.71140        0.09560       -2.07580
H          2.00270       -1.44890        0.24190
H          2.65960       -1.31230       -1.40210
H          2.56000        0.12110       -0.37510
H          0.51660       -2.41380       -2.30200
H         -0.76710       -3.72120       -0.59580
H         -0.93580       -2.21810        0.43030
H         -2.11290       -1.03650       -1.41700
H         -1.97620       -2.51170       -2.48990
