11
gdb 16264	3.48946	1.99386	1.4333	4.7268	57.57	-0.2774	-0.0612	0.2162	810.4642	0.070974	-397.374808	-397.368245	-397.367301	-397.405788	23.66
O         -0.05990       -0.00030       -0.00780
C         -0.05160        1.18530        0.05170
C         -1.14580        2.28730        0.17390
C         -0.02850        3.30910       -0.06930
O          0.90870        3.13870        0.98040
C          1.03620        2.26410       -0.16290
C          2.27080        2.21540       -0.87470
N          3.25510        2.12580       -1.47450
H         -1.86850        2.18800       -0.64130
H         -1.66340        2.37990        1.12980
H         -0.05560        4.25920       -0.58750
