18
gdb 7173	6.77141	0.79679	0.74647	0.8258	70.45	-0.2566	0.0463	0.3029	1479.2919	0.150422	-384.896658	-384.886766	-384.885822	-384.931725	34.831
O         -0.11200        1.47920        0.05820
C          0.02130        0.06510        0.04770
C         -1.37960       -0.52970       -0.01910
C         -1.37670       -2.06170       -0.00870
O         -0.71560       -2.58380        1.13530
C         -2.81170       -2.62010       -0.14240
C         -2.86740       -4.07440       -0.20260
C         -2.90890       -5.27360       -0.26470
H          0.76580        1.86110        0.14740
H          0.60780       -0.27480       -0.82190
H          0.53120       -0.30280        0.94860
H         -1.96260       -0.15470        0.83370
H         -1.87860       -0.16370       -0.92420
H         -0.78640       -2.43170       -0.85550
H         -1.23150       -2.34250        1.91320
H         -3.40970       -2.25850        0.70700
H         -3.27640       -2.19340       -1.04030
H         -2.94360       -6.33350       -0.31460
