18
gdb 9884	4.95221	0.95253	0.88241	2.8503	69.19	-0.2511	-0.0218	0.2293	1305.7302	0.150804	-384.934233	-384.925216	-384.924272	-384.968995	31.488
C          0.18530        1.61280       -0.15800
C         -0.01440        0.11280       -0.18210
C         -1.44280       -0.39060       -0.31270
C         -2.29550       -0.08210        0.93410
C         -3.63140       -0.78510        0.87980
O         -4.70350       -0.24250        0.95020
C          1.09130       -0.75820       -0.60920
O          0.76830       -0.61620        0.77750
H          1.24430        1.85500       -0.04250
H         -0.17820        2.06760       -1.08580
H         -0.35780        2.06980        0.67500
H         -1.90780        0.05270       -1.20160
H         -1.41820       -1.47500       -0.46950
H         -1.75440       -0.45610        1.81460
H         -2.47370        0.98860        1.06190
H         -3.55780       -1.89250        0.75900
H          0.87780       -1.73500       -1.04210
H          2.03950       -0.31700       -0.91450
