18
gdb 11593	5.85365	0.92035	0.83462	2.4412	70.46	-0.2434	0.0318	0.2752	1372.3153	0.15358	-381.127432	-381.11835	-381.117406	-381.16331	31.259
C         -0.08220        1.46650       -0.16030
C          0.27380       -0.00930       -0.06610
O          1.09810       -0.42620        0.72730
N         -0.39900       -0.82610       -0.93350
C         -0.14720       -2.25480       -1.01650
C          0.13840       -2.69810       -2.43120
C         -0.19150       -4.07460       -2.86520
N         -0.97050       -2.93210       -3.37930
H          0.82240        2.02950       -0.40530
H         -0.85250        1.69000       -0.90300
H         -0.42260        1.80820        0.82050
H         -1.04460       -0.41760       -1.58920
H          0.70640       -2.44700       -0.36050
H         -1.00230       -2.82380       -0.62080
H          0.99190       -2.20380       -2.89080
H          0.42940       -4.57630       -3.60120
H         -0.65870       -4.73800       -2.14130
H         -1.85960       -2.89000       -2.88380
