16
gdb 11279	4.81929	1.30012	1.11803	1.3638	76.57	-0.2373	-0.0283	0.209	1053.2856	0.130217	-346.586368	-346.578545	-346.577601	-346.618589	29.444
O         -0.11430        1.45740       -0.20980
C          0.05290        0.06400        0.06200
C         -1.27510       -0.73660        0.13960
C         -1.38470       -1.52520       -1.18630
C          0.02720       -1.46040       -1.75230
C          0.80800       -0.62800       -1.04450
C          0.40090       -2.19790       -2.90180
C          0.67120       -2.84740       -3.88030
H         -0.41760        1.53840       -1.12120
H          0.58750        0.04610        1.01690
H         -1.23090       -1.43360        0.98170
H         -2.11530       -0.06120        0.31620
H         -1.70720       -2.55980       -1.03360
H         -2.09760       -1.08480       -1.89440
H          1.84230       -0.40130       -1.27360
H          0.92570       -3.41290       -4.74220
