14
gdb 12191	4.19558	1.43078	1.18887	1.9333	64.86	-0.2472	-0.036	0.2112	980.3952	0.104501	-382.502775	-382.494625	-382.493681	-382.535621	29.133
O          0.24930        1.41200        0.24370
C          0.11430        0.03930        0.06680
C         -1.28790       -0.66570        0.06180
C         -0.79470       -1.62740       -1.07760
C         -1.68330       -1.99380       -2.15260
C         -2.42120       -2.27190       -3.05970
C          0.29370       -0.54270       -1.34120
O          0.80240       -0.10430       -2.32890
H          0.15890        1.83350       -0.61940
H          0.77090       -0.46910        0.78390
H         -1.60400       -1.13490        0.99260
H         -2.06500        0.00670       -0.30610
H         -0.31850       -2.51230       -0.63850
H         -3.07090       -2.52230       -3.86150
