14
gdb 17984	4.01722	1.87894	1.59553	1.2725	62.95	-0.2486	0.0132	0.2618	811.326	0.106386	-382.44838	-382.441602	-382.440658	-382.479533	25.386
C          0.13930       -1.13940        0.27920
C          0.09970        0.05450        0.15020
C          0.04290        1.49010       -0.02520
O         -0.34950        2.23530        1.17130
C          0.82950        3.05560        1.11510
C          2.02700        2.45360        1.86930
O          2.44010        1.72080        0.68170
C          1.38190        2.28150       -0.09480
H          0.18390       -2.19410        0.39680
H         -0.63130        1.75050       -0.85270
H          0.61570        4.12230        1.18930
H          2.79900        3.16980        2.17570
H          1.76370        1.79560        2.70300
H          1.70530        2.66510       -1.06350
