14
gdb 18551	4.30038	2.02909	1.62515	4.1015	61.93	-0.2535	-0.0065	0.247	776.8545	0.10922	-382.579434	-382.573453	-382.572509	-382.609605	23.084
O          0.02320        0.08380       -0.63420
C          0.05380        1.16700       -0.14970
O         -0.95500        1.82020        0.51770
C         -0.14800        3.03830        0.67910
C          0.21420        3.32250        2.13980
C          1.54620        2.62780        2.30980
C          2.01260        2.11060        1.17170
C          1.05930        2.32160        0.02470
H         -0.61980        3.86120        0.14250
H          0.28620        4.39950        2.33640
H         -0.56160        2.92980        2.80790
H          2.04920        2.56690        3.26830
H          2.94030        1.56370        1.05790
H          1.49760        2.70320       -0.89900
