18
gdb 7659	3.13617	2.14919	1.51103	1.6731	68.26	-0.2417	0.0602	0.3019	877.0129	0.151896	-384.864244	-384.856206	-384.855262	-384.895942	31.13
C         -0.11160        1.50960        0.04930
C         -0.04640       -0.01720       -0.00170
C         -1.41190       -0.58180       -0.39090
C          1.27520       -0.60310       -0.61160
O          2.02180       -0.04820        0.53890
C          0.81750       -0.67650        1.13380
C          1.16810       -1.90430        0.25880
O          0.23490       -2.92940        0.06370
H          0.84780        1.94410        0.32860
H         -0.40850        1.90950       -0.92700
H         -0.86920        1.83290        0.77240
H         -1.71830       -0.16330       -1.35690
H         -1.43020       -1.66590       -0.46020
H         -2.16360       -0.26750        0.34260
H          1.70970       -0.45490       -1.60270
H          0.70630       -0.61260        2.21800
H          2.16250       -2.29160        0.50150
H          0.66100       -3.62670       -0.44370
