16
gdb 20179	3.89463	2.5864	1.94383	1.011	69.86	-0.2278	-0.0174	0.2105	716.5477	0.132576	-346.519421	-346.513665	-346.512721	-346.548829	24.193
C         -0.09230        1.35170        0.20690
C          1.42650        1.45620       -0.11790
C          2.31190        0.16980       -0.06030
O          2.25240       -0.95190        0.78180
C          1.27160       -1.92410        0.31420
C         -0.03690       -1.18090        0.28020
C          0.03220       -0.03530       -0.40410
C          1.31910        0.32780       -1.14730
H         -0.42380        1.41410        1.24780
H         -0.63210        2.08460       -0.40330
H          1.93800        2.40640       -0.24100
H          3.34780        0.41230       -0.29050
H          1.58420       -2.31270       -0.66240
H          1.28900       -2.73510        1.04330
H         -0.74110       -1.30740        1.09820
H          1.49100        0.32180       -2.21670
