16
gdb 19561	4.09225	2.1247	1.92425	1.457	68.53	-0.2179	0.0006	0.2184	752.9655	0.133124	-342.693726	-342.687714	-342.68677	-342.723463	24.966
C          0.02790        1.49350       -0.00940
N          1.27340        0.67290        0.04820
C         -0.00790        0.02770        0.01040
C         -0.61120       -1.00010        1.00940
N         -1.75440       -1.05290        0.02700
C         -0.64730       -0.97720       -0.99160
C          0.20510       -2.22830       -0.68940
C          0.22850       -2.24110        0.64810
H         -0.17570        2.06960        0.88880
H         -0.22270        1.99920       -0.93890
H          1.73400        0.64310       -0.85790
H         -0.83250       -0.77240        2.05110
H         -2.18080       -1.98150        0.02330
H         -0.90570       -0.72600       -2.02070
H          0.69170       -2.87430       -1.40600
H          0.74470       -2.89790        1.33320
