15
gdb 6337	5.36555	1.05907	0.8944	7.0659	60.37	-0.2439	-0.0194	0.2245	1234.1749	0.115626	-436.980345	-436.970881	-436.969936	-437.016319	31.087
C         -0.22080        1.49730        0.01130
C          0.16130        0.02370        0.00130
O          1.29710       -0.37050       -0.00970
N         -0.96040       -0.82270        0.00650
C         -0.98140       -2.22630       -0.00020
O         -0.01040       -2.92740       -0.01340
C         -2.42160       -2.75960        0.01200
O         -2.37680       -4.15810       -0.00280
H          0.69180        2.09180        0.00590
H         -0.82380        1.75160       -0.86710
H         -0.80790        1.74360        0.90280
H         -1.85930       -0.36300        0.01620
H         -2.92520       -2.35940        0.90960
H         -2.94770       -2.34160       -0.86450
H         -3.28020       -4.48700        0.01530
