14
gdb 6251	4.2752	1.33009	1.03586	3.918	62.59	-0.2671	-0.0777	0.1894	1076.6138	0.105545	-415.904301	-415.895703	-415.894758	-415.939102	28.731
C         -0.00970        1.39500        0.08600
C         -0.34360        0.06010       -0.55150
O         -1.35850       -0.14580       -1.18430
N          0.61760       -0.91600       -0.34450
C          0.63050       -2.20090       -0.89380
N          1.73810       -2.81880       -0.97690
C         -0.69280       -2.86370       -1.26560
O         -0.68830       -3.86510       -1.93480
H          0.90040        1.81460       -0.35600
H         -0.83910        2.08010       -0.08320
H          0.16260        1.28400        1.16110
H          1.50820       -0.63820        0.04610
H          1.55830       -3.74740       -1.36750
H         -1.61200       -2.41640       -0.86250
