17
gdb 5516	3.13937	1.82042	1.19067	2.0742	72.3	-0.1912	0.0428	0.234	1000.347	0.142837	-363.898272	-363.890006	-363.889062	-363.931239	30.109
C         -0.12550        1.54530        0.07710
C         -0.01990        0.05010        0.01750
C          0.06470       -0.73490       -1.11650
C          0.10710       -0.39910       -2.56840
O         -0.54230       -1.45160       -3.28520
N          0.18570       -2.04410       -0.71780
C          0.15290       -2.12020        0.64860
C          0.03980       -0.83870        1.13340
H          0.84280        2.02420        0.27150
H         -0.50800        1.96310       -0.85990
H         -0.80340        1.86070        0.87740
H         -0.38560        0.57000       -2.73620
H          1.14730       -0.29540       -2.92230
H         -0.35330       -1.33300       -4.22080
H          0.14580       -2.81270       -1.36490
H          0.19720       -3.07060        1.15590
H         -0.00100       -0.55630        2.17510
