12
gdb 9988	2.93869	1.47978	1.02504	3.6796	63.82	-0.2902	-0.0287	0.2615	1066.0604	0.081119	-377.471135	-377.462821	-377.461876	-377.505054	27.934
N         -0.06880        1.28100       -0.10070
C         -0.04170        0.02570       -0.09630
O         -1.20570       -0.66040        0.08300
C         -1.11030       -2.08070        0.01360
C         -2.25280       -2.67110        0.70080
C         -3.17460       -3.18200        1.27210
C         -1.04210       -2.53470       -1.39570
N         -0.95170       -2.88090       -2.49330
H          0.86810        1.65810       -0.22570
H          0.83710       -0.62200       -0.21450
H         -0.18420       -2.41650        0.50520
H         -3.99820       -3.62710        1.77540
