19
gdb 17460	4.13273	1.92105	1.6472	1.4873	73.84	-0.2174	0.0804	0.2977	858.7996	0.167301	-327.892925	-327.88598	-327.885035	-327.923501	28.341
C         -0.06880        1.50830        0.03330
C          0.00960       -0.00070       -0.00310
C         -0.82950       -0.81510        0.94950
C          0.67680       -0.82360        1.08560
C          1.49450       -1.89500        0.40340
C          0.83480       -2.95290       -0.40440
N          1.37780       -1.75960       -1.06710
C          0.41400       -0.66500       -1.33080
H          0.86620        1.96490       -0.31170
H         -0.87660        1.88200       -0.60740
H         -0.26490        1.86800        1.04840
H         -1.38000       -0.26370        1.70650
H         -1.34860       -1.70070        0.60190
H          1.11590       -0.34800        1.95570
H          2.49390       -2.06480        0.79560
H          1.36690       -3.87330       -0.63380
H         -0.24190       -3.07710       -0.33170
H         -0.44360       -1.04020       -1.90190
H          0.92190        0.07440       -1.96000
