10
gdb 21325	6.17342	1.67668	1.31856	5.4057	61.34	-0.2694	-0.1043	0.1652	819.8218	0.062332	-372.510103	-372.504245	-372.503301	-372.540299	20.787
N          0.02160       -1.12570       -0.00310
C          0.00160        0.02940        0.00290
C         -0.03220        1.47200        0.01030
N         -1.23910        2.05390        0.02990
C         -1.20500        3.37750        0.03720
C          0.01490        4.05700        0.02510
N          1.17680        3.40660        0.00610
N          1.15990        2.08040       -0.00140
H         -2.15500        3.90510        0.05280
H          0.07310        5.14030        0.03060
