13
gdb 16267	3.43089	1.96321	1.44751	3.7536	66.5	-0.2466	-0.0008	0.2457	841.3095	0.094933	-361.419039	-361.412152	-361.411208	-361.44998	26.321
O         -0.08560        0.03580        0.12310
C         -0.04180        1.22520        0.03000
N         -1.04440        2.21250        0.03990
C         -0.07900        3.30840       -0.03050
C          0.91320        3.24150        1.07890
C          1.06140        2.28820       -0.12950
C          2.20730        2.24720       -0.96240
C          3.18070        2.18700       -1.66660
H         -1.82910        2.19370        0.68190
H         -0.24950        4.16010       -0.67450
H          1.67050        4.01880        1.11230
H          0.62370        2.83480        2.04340
H          4.03620        2.13000       -2.29290
