14
gdb 10797	4.96959	1.58476	1.24703	1.0247	58.02	-0.247	-0.0351	0.2119	900.8022	0.109304	-415.920465	-415.91347	-415.912525	-415.952118	25.687
O         -0.01050        0.14940       -0.76760
C         -0.01530        1.16350       -0.11970
C         -1.29190        1.76170        0.46370
N         -1.12340        3.17740        0.74860
C         -0.02690        3.63680        1.45960
O         -0.03170        4.66070        2.11340
N          1.07570        2.80580        1.34690
C          1.25490        1.95280        0.18320
H         -2.10050        1.61490       -0.25620
H         -1.54020        1.17000        1.36130
H         -1.95820        3.70470        0.95680
H          1.90600        3.22210        1.74120
H          2.06740        1.24310        0.35660
H          1.50370        2.51970       -0.73010
