18
gdb 7794	3.12418	1.91714	1.26468	3.0737	69.89	-0.2285	0.0215	0.25	971.6664	0.155798	-381.132321	-381.124607	-381.123663	-381.164413	29.182
C          0.04110        1.51880        0.08870
C         -0.01010        0.00850       -0.07190
C          0.77340       -0.51240       -1.27520
N          0.86200       -1.96920       -1.30040
C          1.45680       -2.45700       -0.05680
C          0.88490       -1.86000        1.21600
N          0.87120       -2.51910        2.29650
O          0.48670       -0.55400        1.16520
H          1.07670        1.85920        0.18490
H         -0.40860        2.00960       -0.77980
H         -0.50580        1.82720        0.98320
H         -1.05770       -0.31700       -0.17380
H          0.30120       -0.15740       -2.19740
H          1.79430       -0.10760       -1.25120
H         -0.06960       -2.36200       -1.40660
H          1.37590       -3.54280        0.00630
H          2.52870       -2.21370       -0.07830
H          0.49730       -1.94050        3.05290
