13
gdb 23860	3.87022	1.31542	1.205	3.9291	47.59	-0.2634	-0.0283	0.2351	986.1864	0.089305	-530.132772	-530.124436	-530.123491	-530.167412	28.236
C         -0.05970        1.53190        0.01110
C          0.10850        0.02500        0.00120
O          1.18860       -0.50970       -0.01220
C         -1.19900       -0.77260        0.00940
C         -1.02010       -2.27960       -0.00050
F         -0.35350       -2.71190        1.07390
F         -2.22600       -2.88030        0.00780
F         -0.37420       -2.70010       -1.09210
H          0.92010        2.00990        0.00450
H         -0.63600        1.85860       -0.86190
H         -0.61940        1.84890        0.89840
H         -1.78620       -0.50310        0.89380
H         -1.80290       -0.49360       -0.86080
