16
gdb 1287	7.94292	1.05193	0.95777	4.6	57.85	-0.2448	0.0347	0.2796	1158.8734	0.135165	-362.944759	-362.935797	-362.934853	-362.979581	29.83
N         -0.02990        1.29550       -0.21080
C          0.04880       -0.00730        0.19420
O          1.08310       -0.49760        0.60160
C         -1.26550       -0.78420        0.10850
C         -1.03890       -2.28510       -0.07540
C         -2.32780       -3.08750        0.03370
O         -2.00780       -4.45360       -0.17500
H          0.78110        1.88000       -0.09130
H         -0.89620        1.72130       -0.48850
H         -1.80690       -0.59870        1.04740
H         -1.89440       -0.37720       -0.69290
H         -0.58330       -2.48000       -1.05240
H         -0.32400       -2.63250        0.67500
H         -2.78000       -2.92980        1.02770
H         -3.05870       -2.73180       -0.71250
H         -2.81710       -4.96760       -0.10160
