15
gdb 10023	3.41222	1.0811	0.85506	3.6374	70.28	-0.2671	0.0152	0.2823	1311.6789	0.116843	-362.645429	-362.63605	-362.635106	-362.681098	31.254
C         -0.00590        1.47980       -0.00330
C          0.01940        0.02520       -0.02770
C          0.05550       -1.17680       -0.05320
C          0.04030       -2.63680       -0.06350
C         -1.39740       -3.20320        0.16850
O         -1.40790       -4.60570        0.22430
C          0.56330       -3.18650       -1.32500
N          0.92120       -3.66660       -2.31340
H          0.62650        1.87330        0.79960
H          0.35840        1.89330       -0.94960
H         -1.02220        1.85520        0.15620
H          0.67060       -3.03050        0.74480
H         -1.74360       -2.83890        1.13870
H         -2.06190       -2.80150       -0.60780
H         -1.21590       -4.94730       -0.65680
