18
gdb 6257	4.52851	1.05807	0.97042	2.6295	74.2	-0.2439	-0.0598	0.1842	1246.5071	0.151716	-381.146077	-381.136664	-381.13572	-381.180209	33.792
C          0.22480        1.62720       -0.12560
C          0.00910        0.11850        0.08950
C         -1.46720       -0.20090        0.34100
N          0.44970       -0.61550       -1.09150
C          1.67340       -0.97910       -1.18670
N          2.71720       -0.82870       -0.31250
C          2.03750       -1.72500       -2.43620
O          3.16250       -2.08790       -2.68500
H          1.28170        1.86500       -0.28430
H         -0.32860        1.96260       -1.00790
H         -0.12700        2.19480        0.74160
H          0.58080       -0.19110        0.98170
H         -2.07010        0.09950       -0.52170
H         -1.60880       -1.27450        0.49290
H         -1.83580        0.32580        1.22720
H          2.69560       -0.10350        0.38220
H          3.62100       -1.08230       -0.68430
H          1.17430       -1.89980       -3.10470
