14
gdb 20571	4.66535	1.4891	1.39301	1.5388	58.35	-0.292	-0.03	0.262	907.7819	0.107231	-415.857687	-415.850252	-415.849307	-415.890301	26.218
C         -0.14710        1.53140        0.01170
C         -0.04080        0.00130       -0.00680
O          0.59440       -0.48300       -1.17640
C          0.64880       -0.50730        1.23040
N          0.13480       -1.04670        2.29480
C          1.25290       -1.26950        3.06240
N          2.38370       -0.90410        2.52620
O          1.98190       -0.38250        1.28720
H          0.84790        1.98740        0.05090
H         -0.65230        1.86660       -0.89730
H         -0.71480        1.87430        0.88170
H         -1.04170       -0.43800       -0.00580
H          1.49700       -0.14410       -1.19050
H          1.22090       -1.71970        4.04400
