16
gdb 10100	2.30209	1.67496	1.09177	3.8265	66.8	-0.2744	0.0012	0.2755	1083.5428	0.129652	-379.963752	-379.954796	-379.953852	-379.998324	30.606
C          0.04340        1.54640       -0.19150
C          0.01660        0.02340       -0.06100
C          0.76780       -0.68780       -1.20890
N          2.18420       -0.35390       -1.26310
C          2.73190        0.29790       -2.33130
O          2.10810        0.70860       -3.28380
C          0.59730       -2.14700       -1.10890
N          0.46730       -3.28930       -0.99350
H          1.06700        1.93050       -0.16780
H         -0.41390        1.87310       -1.13070
H         -0.50820        2.00770        0.63210
H          0.45360       -0.29080        0.89430
H         -1.01560       -0.34290       -0.06390
H          0.36070       -0.35630       -2.17070
H          2.79300       -0.70690       -0.54070
H          3.82560        0.42060       -2.21910
