18
gdb 10761	3.64001	1.4547	1.33148	2.3298	63.35	-0.2571	0.0731	0.3302	988.1969	0.152061	-422.051917	-422.043324	-422.04238	-422.084603	32.292
C         -0.16030        1.66060       -0.00600
C         -0.04080        0.13930       -0.05160
O          0.61710       -0.27730        1.14800
C         -1.43100       -0.53470       -0.07610
O         -2.13100       -0.28650        1.12250
C          0.77040       -0.31790       -1.25600
C          2.23460       -0.36960       -1.22960
O          1.45230       -1.56770       -1.07720
H          0.81790        2.11460        0.16930
H         -0.56350        2.04460       -0.94850
H         -0.83890        1.95120        0.79900
H          0.96500       -1.16190        0.95720
H         -2.03850       -0.13970       -0.89820
H         -1.29450       -1.61570       -0.24910
H         -1.48380       -0.43500        1.82530
H          0.27280       -0.21460       -2.22100
H          2.79380       -0.30360       -2.16030
H          2.75980       -0.04980       -0.33320
