8
gdb 3932	9.28041	2.25194	1.8122	2.702	42.91	-0.3256	-0.1158	0.2099	598.0259	0.043303	-387.558484	-387.553265	-387.552321	-387.58781	17.092
O         -0.10150       -0.04430        0.00040
C         -0.05220        1.14190        0.00780
N          1.18550        1.87200       -0.00040
N          2.41800        1.35190       -0.01700
N          3.20710        2.36340       -0.01860
N          2.46440        3.51770       -0.00290
N          1.22040        3.21020        0.00820
H         -0.89440        1.84840        0.02150
