16
gdb 10057	2.66806	1.52135	1.01854	2.4331	67.56	-0.2508	-0.0363	0.2145	1114.5706	0.126085	-383.698749	-383.68941	-383.688466	-383.733557	31.934
C          0.07530        0.95440        0.83890
O         -0.54160        0.08600       -0.09560
C          0.29780       -0.42560       -1.10100
C          1.14380       -1.64940       -0.68250
C          2.35080       -1.32840        0.06620
C          3.35790       -1.06030        0.66600
C         -0.62730       -0.78160       -2.26600
O         -0.37420       -1.59820       -3.11110
H          0.80060        0.43150        1.47170
H          0.58890        1.78440        0.33130
H         -0.72410        1.36020        1.46340
H          0.97530        0.36280       -1.47770
H          0.49820       -2.31840       -0.10110
H          1.40470       -2.18390       -1.60360
H          4.24850       -0.83190        1.19720
H         -1.56830       -0.19140       -2.26410
