12
gdb 21707	8.4136	1.24113	1.08158	5.273	64.72	-0.237	-0.0401	0.1969	1004.4081	0.085232	-410.851224	-410.844145	-410.843201	-410.883627	24.242
N         -0.01780        1.32420        0.00830
C          0.05260       -0.01680        0.00180
N          1.19090       -0.62350       -0.01230
C          1.21020       -1.98360       -0.01930
N          2.27760       -2.74100       -0.03020
C          1.73450       -3.99440       -0.03270
N          0.43040       -4.05850       -0.02530
O          0.06030       -2.70200       -0.01550
H          0.83440        1.86210        0.00240
H         -0.89990        1.80230        0.02020
H         -0.91470       -0.52540        0.00930
H          2.33040       -4.89620       -0.04140
