20
gdb 18259	4.1523	1.48699	1.24289	1.7613	73.93	-0.2541	0.0886	0.3427	1041.8066	0.178332	-349.009103	-349.001373	-349.000429	-349.041131	29.765
C          0.08140        1.52500       -0.03010
C          0.00030       -0.00350        0.02760
C         -1.43230       -0.55070        0.01290
C         -2.23530       -0.23190       -1.27890
C         -3.25220       -1.38660       -1.45050
C         -2.57950       -2.56270       -0.77110
O         -1.20100       -2.72730       -1.13930
C         -1.50960       -2.06630        0.09960
H          1.12050        1.86620        0.00930
H         -0.36010        1.91670       -0.95210
H         -0.45040        1.98230        0.81230
H          0.54580       -0.43990       -0.81820
H          0.50660       -0.35770        0.93520
H         -1.97190       -0.15170        0.88570
H         -2.72180        0.74520       -1.23800
H         -1.54990       -0.22080       -2.13090
H         -4.19450       -1.17290       -0.93040
H         -3.49500       -1.58110       -2.49990
H         -3.12030       -3.48550       -0.57520
H         -1.18410       -2.58950        0.99650
