16
gdb 14495	3.67018	2.07908	1.58066	4.2104	69.44	-0.2508	0.0093	0.2602	824.9967	0.131391	-342.712921	-342.705881	-342.704937	-342.743921	27.06
C         -0.15210        1.55680        0.05530
C          0.01000        0.03900       -0.02290
C         -1.28910       -0.55830        0.31130
N         -2.34010       -0.97320        0.55640
C          0.83430       -0.67000       -1.14710
C          2.07530       -0.11900       -0.41720
N          1.20290       -0.60370        0.76190
C          0.96330       -1.83460       -0.14280
H          0.72660        2.09960       -0.29110
H         -1.00460        1.86630       -0.55560
H         -0.35520        1.85000        1.08920
H          0.60850       -0.69670       -2.21790
H          2.99910       -0.69250       -0.51180
H          2.28660        0.94850       -0.42310
H          0.07430       -2.41060        0.11630
H          1.84410       -2.47360       -0.22450
