14
gdb 23913	2.90567	1.9157	1.65019	1.0427	50.18	-0.26	0.087	0.3469	813.6506	0.103886	-510.217337	-510.209776	-510.208832	-510.249259	28.342
N         -0.21080        1.41510       -0.16360
C         -0.05490       -0.00500       -0.00320
C         -0.38830       -0.59290        1.34370
C         -1.30630       -0.82620        0.17080
C          1.08660       -0.62340       -0.77360
F          2.26440       -0.07750       -0.41550
F          1.18540       -1.94920       -0.58720
F          0.94880       -0.41190       -2.09640
H          0.63540        1.89600        0.12870
H         -0.35970        1.64310       -1.14270
H          0.20440       -1.42690        1.69900
H         -0.70100        0.11690        2.09930
H         -2.23690       -0.27340        0.13710
H         -1.33270       -1.81750       -0.26480
