14
gdb 16192	3.25503	2.38939	1.53045	4.1059	64.14	-0.2409	-0.0581	0.1828	799.0463	0.107463	-382.548905	-382.542331	-382.541386	-382.579776	24.777
O          0.08980       -0.01170       -0.01440
C          0.00890        1.19370        0.00630
C         -1.20240        2.04200       -0.01510
C         -0.86230        3.33830        0.00890
C          0.62940        3.57140        0.04400
C          1.19030        2.15770        0.07590
C          2.45120        1.73410        0.70330
O          2.33390        1.82730       -0.71170
H         -2.20330        1.63210       -0.04770
H         -1.56440        4.16530        0.00780
H          0.97680        4.10910       -0.84620
H          0.92190        4.17370        0.91230
H          3.08560        2.48320        1.17590
H          2.51900        0.72120        1.09640
