15
gdb 318	6.36553	3.40958	3.40949	1.9709	57.23	-0.2257	0.0834	0.3091	503.8125	0.132764	-250.478855	-250.473446	-250.472502	-250.507275	21.04
C         -0.02330        1.51530        0.01900
C         -0.00600        0.00680        0.01400
C          0.55330       -0.96810       -1.05210
N          0.01660       -1.94540        0.00720
C          0.65150       -0.97410        1.01680
C         -1.18930       -0.99220        0.06740
H          0.99330        1.92060       -0.02810
H         -0.58030        1.90520       -0.83990
H         -0.49660        1.90040        0.92890
H          0.03310       -1.03720       -2.01230
H          1.63820       -1.02140       -1.18470
H          1.74410       -1.02790        1.04580
H          0.22440       -1.04890        2.02150
H         -1.75950       -1.06850        0.99830
H         -1.84500       -1.06290       -0.80580
