20
gdb 18531	5.33449	1.02785	0.97056	1.4642	74.7	-0.2518	0.0813	0.3331	1249.0283	0.177539	-348.967284	-348.959044	-348.9581	-349.000289	30.959
O         -0.03400        1.45720       -0.07760
C          0.01190        0.04400        0.05790
C         -1.40090       -0.49450       -0.12880
C         -1.48120       -2.01200        0.00550
C         -1.28870       -2.68570        1.41380
C         -2.64150       -3.38790        1.24440
C         -3.73010       -2.36770        1.07780
C         -2.85540       -2.69280       -0.10240
H          0.85430        1.80060        0.05460
H          0.68310       -0.40600       -0.69280
H          0.39500       -0.24740        1.04970
H         -2.05530       -0.00630        0.60270
H         -1.76030       -0.19120       -1.12030
H         -0.78830       -2.47410       -0.70670
H         -0.43570       -3.36710        1.44070
H         -1.21690       -2.00650        2.27130
H         -2.85440       -4.41340        1.52040
H         -4.73810       -2.76600        1.01950
H         -3.66560       -1.40540        1.58020
H         -3.27490       -3.09450       -1.01770
