16
gdb 20048	5.4572	1.42977	1.25145	2.2695	66.38	-0.2128	0.0195	0.2323	972.978	0.132277	-379.907274	-379.900056	-379.899112	-379.93919	26.319
C          0.77040        1.00190       -0.05330
O          0.13350       -0.01280       -0.82630
C         -0.57210        0.50900        0.30390
C         -0.76540       -0.42090        1.44600
N         -1.48370       -0.13810        2.46730
C         -1.39550       -1.31450        3.35510
C         -0.25120       -2.20010        2.78090
N         -0.16340       -1.66240        1.42250
H          1.63280        0.67950        0.52800
H          0.86740        1.97230       -0.53680
H         -1.42960        1.13790        0.07750
H         -1.21220       -1.00820        4.38860
H         -2.35520       -1.84810        3.33990
H          0.68890       -2.06070        3.33460
H         -0.49150       -3.26670        2.77820
H          0.62750       -1.82980        0.82150
