18
gdb 15998	3.806	1.49848	1.22984	2.6719	67.82	-0.2444	0.0585	0.3029	1013.3623	0.153676	-384.897166	-384.889251	-384.888307	-384.929701	29.521
O         -0.01180        1.38940       -0.41460
C          0.10560        0.02040       -0.08190
C         -1.25700       -0.54960        0.28030
O         -2.17310       -0.35640       -0.83540
C         -2.36730       -1.78250       -0.99390
C         -1.46090       -2.06110        0.20010
C         -0.46820       -3.16720        0.39390
C         -1.66510       -3.04170        1.31080
H         -0.71830        1.43710       -1.07120
H          0.53580       -0.56480       -0.91060
H          0.79150       -0.04830        0.77030
H         -1.64470       -0.06020        1.18360
H         -3.42180       -2.06270       -0.87610
H         -2.00640       -2.14020       -1.96710
H         -0.46040       -3.97430       -0.33190
H          0.51030       -2.92140        0.79370
H         -1.49620       -2.70360        2.32840
H         -2.46740       -3.76580        1.20940
