16
gdb 656	4.72529	4.53743	2.54778	0.2447	61.37	-0.2343	0.0337	0.268	552.2096	0.145885	-234.520624	-234.515101	-234.514157	-234.549276	21.521
C         -0.01640        1.52180       -0.04030
C          1.41410        2.07260        0.02390
C          2.10550        1.65280        1.33000
C          1.86090        0.20170        1.65810
C          0.92970       -0.54250        1.06190
C         -0.01600       -0.01350        0.01360
H         -0.58900        1.91160        0.81140
H         -0.52480        1.86890       -0.94630
H          1.98690        1.68280       -0.82780
H          1.41360        3.16390       -0.07070
H          3.18490        1.83980        1.26350
H          1.75370        2.28090        2.16270
H          2.49370       -0.24180        2.42390
H          0.82520       -1.59090        1.33290
H         -1.03000       -0.38520        0.20940
H          0.25870       -0.42630       -0.96910
