13
gdb 7949	3.74647	1.808	1.26794	0.8413	55.28	-0.2652	-0.0297	0.2354	877.7316	0.096407	-435.814704	-435.807766	-435.806822	-435.846217	25.473
O          0.10040        1.36560        0.28180
C         -0.01040       -0.01230        0.03370
C         -1.46070       -0.47690       -0.13460
C         -1.43180       -1.43820       -1.32190
O         -2.29630       -2.17700       -1.70890
N         -0.17870       -1.28850       -1.93020
C          0.65710       -0.39020       -1.29600
O          1.70940        0.03980       -1.70000
H          0.97470        1.63110       -0.03500
H          0.48980       -0.60240        0.82010
H         -1.89600       -0.96090        0.74000
H         -2.08960        0.37970       -0.39850
H          0.05140       -1.73920       -2.80550
