10
gdb 23802	4.03053	1.87757	1.28089	3.9222	52.32	-0.281	-0.0942	0.1868	814.2843	0.059613	-458.560134	-458.554164	-458.55322	-458.590517	21.88
F          0.05700        0.04090        0.00230
C         -0.02290        1.36080        0.01080
C         -1.19490        2.01510        0.03020
C         -1.18340        3.46740        0.03820
O         -2.13260        4.19690        0.05500
O          0.09240        4.06860        0.02440
N          1.27640        3.37610        0.00460
C          1.21460        2.08890       -0.00180
H         -2.15370        1.51480        0.04030
H          2.16520        1.56710       -0.01750
