11
gdb 11690	5.83418	1.42748	1.30855	1.2766	57.42	-0.2758	-0.0629	0.2129	870.4537	0.070916	-397.374415	-397.367893	-397.366948	-397.40534	23.678
O          0.05260        0.00740        0.00500
C          0.00990        1.19540        0.04870
C         -1.15040        2.23840        0.10390
C         -0.06220        3.30770       -0.09940
O          0.83150        3.18860        1.00320
C          1.05230        2.31010       -0.11340
C         -0.15840        4.54880       -0.80100
N         -0.27600        5.54490       -1.37560
H         -1.82590        2.10550       -0.74530
H         -1.71530        2.32670        1.03270
H          2.02290        2.33490       -0.59430
