11
gdb 21742	5.68934	2.36666	1.67139	6.2512	56.08	-0.2453	-0.0183	0.227	681.1321	0.075479	-393.582233	-393.577159	-393.576215	-393.611318	19.678
O         -0.04970        1.32060        0.00970
C          1.25280        1.78070       -0.00020
C          2.13790        0.76470       -0.01440
N          1.36470       -0.40010       -0.01340
C          1.29930       -1.77320       -0.02020
N          0.04000       -2.14740       -0.01020
N         -0.78130       -1.02580        0.00380
C          0.05010       -0.02590        0.00130
H          1.37830        2.84930        0.00450
H          3.21320        0.77380       -0.02470
H          2.15630       -2.42510       -0.03200
