10
gdb 248	8.85115	2.58309	2.01992	6.1119	41.58	-0.2548	-0.0128	0.242	566.0758	0.073232	-338.542975	-338.536767	-338.535823	-338.573022	20.96
N         -0.12980        1.40370        0.10530
C          0.13850        0.04390        0.10150
O          1.24510       -0.42430        0.15710
N         -1.05250       -0.71780        0.09290
C         -1.16360       -2.09400       -0.05840
O         -0.27980       -2.86570       -0.30570
H          0.69870        1.96530       -0.02300
H         -0.94290        1.74030       -0.38790
H         -1.91230       -0.23100        0.29830
H         -2.22300       -2.39970        0.06940
