18
gdb 6079	4.39639	0.8757	0.75695	3.6016	79.89	-0.2519	-0.0441	0.2077	1520.296	0.150397	-347.807615	-347.797622	-347.796678	-347.844599	33.994
C         -0.24440        1.60100       -0.19230
C          0.00010        0.08440       -0.05110
C         -1.31750       -0.68750        0.16130
C          0.74360       -0.43420       -1.19680
C          1.35840       -0.84640       -2.15170
C          2.09870       -1.34400       -3.29560
C          1.68800       -2.71780       -3.78860
O          2.98390       -0.69760       -3.81560
H          0.69710        2.14200       -0.31300
H         -0.87140        1.81040       -1.06420
H         -0.75500        1.98190        0.69740
H          0.63110       -0.07280        0.83540
H         -1.98380       -0.55560       -0.69650
H         -1.13280       -1.75730        0.28760
H         -1.83060       -0.31640        1.05380
H          1.80270       -3.45490       -2.98660
H          0.62940       -2.71490       -4.07000
H          2.30220       -2.99830       -4.64560
