20
gdb 6228	2.13071	2.08087	1.59647	2.0718	71.5	-0.2293	0.0656	0.295	961.2033	0.173201	-386.126735	-386.116773	-386.115829	-386.160164	37.142
C         -0.03470        1.52210       -0.03950
C          0.01410        0.00570        0.03040
C         -1.22740       -0.66550       -0.53190
C          1.34340       -0.68960       -0.19670
O          2.44670        0.11610       -0.50630
C          0.72640       -0.66900        1.19290
C          1.37430        0.11950        2.30870
O          0.11080       -1.85840        1.63090
H          0.92500        1.98310        0.19450
H         -0.30840        1.83800       -1.05240
H         -0.79200        1.91910        0.64580
H         -1.35370       -0.40070       -1.58800
H         -1.17690       -1.75120       -0.44540
H         -2.12360       -0.33290        0.00440
H          1.30480       -1.64460       -0.72380
H          3.23150       -0.28720       -0.12080
H          1.93390        0.97660        1.93170
H          0.62440        0.47310        3.02320
H          2.07850       -0.51890        2.85910
H          0.80160       -2.44300        1.96270
