11
gdb 21407	3.97536	2.06692	1.35988	3.5832	56.77	-0.2862	-0.083	0.2032	804.1846	0.073601	-430.728052	-430.721874	-430.72093	-430.758657	22.735
N         -0.10180        1.31620        0.14540
C          0.02260        0.05870       -0.00670
N         -1.10110       -0.75080       -0.07240
C         -1.10300       -2.11390       -0.23360
O         -2.08220       -2.79650       -0.28820
O          0.14330       -2.70680       -0.33700
N          1.33660       -1.98550       -0.28350
C          1.26030       -0.71940       -0.13170
H          0.80770        1.77360        0.17530
H         -2.00820       -0.30970        0.00390
H          2.21410       -0.20180       -0.09590
