17
gdb 11000	4.10144	1.76091	1.50769	3.3961	70.04	-0.2505	0.0282	0.2788	886.1276	0.143595	-363.878418	-363.871258	-363.870314	-363.909515	27.738
C          0.02700        1.52030        0.06680
C          0.05280        0.01360        0.01340
C         -0.86470       -0.82130        0.85640
C          0.63540       -0.86500        1.10270
C          1.34210       -1.97370        0.41600
N          2.09310       -2.83300        0.95630
O          1.04760       -1.93080       -0.92730
C          0.48510       -0.65810       -1.28350
H          0.99820        1.94570       -0.20960
H         -0.72490        1.92800       -0.61890
H         -0.22080        1.87270        1.07230
H         -1.45500       -0.30620        1.60640
H         -1.34090       -1.69710        0.42660
H          1.04440       -0.48940        2.03040
H          2.48090       -3.45950        0.24880
H         -0.33970       -0.83880       -1.98090
H          1.25100       -0.06040       -1.79540
