13
gdb 21108	3.60661	1.9274	1.26622	3.8215	63.26	-0.2746	-0.0776	0.1971	883.7615	0.096193	-394.787424	-394.780349	-394.779405	-394.819086	24.457
C         -0.02620        1.44680        0.01720
N         -0.01030       -0.00500        0.07030
N         -0.03650       -0.70360       -1.07080
N         -0.01460       -1.98080       -0.76880
C          0.02570       -2.10620        0.57430
C          0.02970       -0.84420        1.14660
C          0.06620       -0.42160        2.54440
O          0.10080       -1.19460        3.47390
H          0.87690        1.85980        0.47360
H         -0.06230        1.72240       -1.03620
H         -0.90650        1.84220        0.53020
H          0.04970       -3.06400        1.06770
H          0.05940        0.67770        2.70990
