13
gdb 19634	6.25633	1.75385	1.68388	2.0248	68.46	-0.2198	0.0137	0.2335	768.8712	0.094697	-324.161603	-324.155586	-324.154642	-324.191456	24.077
C          0.05650       -1.17030       -0.02420
C          0.00790        0.03250       -0.02220
C         -0.09230        1.44200       -0.01570
C         -0.94410        2.44400        0.81790
C         -0.78250        3.48570       -0.29630
C          0.23750        3.37250        0.80690
N          1.09930        2.39760        0.00200
C          0.07570        2.47390       -1.09050
H          0.11160       -2.23070       -0.02600
H         -1.74620        2.31010        1.52840
H         -1.44480        4.28930       -0.58200
H          0.62260        4.07550        1.53360
H          0.33170        2.35600       -2.13650
