11
gdb 8972	5.61734	1.04096	0.88304	2.7855	59.93	-0.3027	-0.0645	0.2382	1174.1227	0.069738	-397.390335	-397.382375	-397.381431	-397.424012	26.517
O          0.01130       -0.08350        0.00430
C          0.00620        1.12040        0.00580
O          1.12710        1.88090       -0.00400
C          2.34110        1.11840       -0.01590
C          3.46140        2.05600       -0.01940
N          4.37380        2.76260       -0.02250
C         -1.17220        1.95000        0.01750
C         -2.18540        2.59480        0.02750
H          2.39190        0.46910        0.86390
H          2.37970        0.47730       -0.90240
H         -3.08130        3.16740        0.03640
