12
gdb 5345	6.2481	1.58338	1.26325	2.3272	71.58	-0.2597	-0.0652	0.1945	880.1414	0.085689	-340.40165	-340.395413	-340.394468	-340.432031	23.273
C          0.01730       -1.19210       -0.00350
C         -0.01660        0.01030        0.00350
C         -0.01790        1.43910        0.01100
N         -1.20650        2.06890        0.03030
C         -1.16490        3.39880        0.03680
N         -0.08230        4.18100        0.02640
C          1.08910        3.53950        0.00740
C          1.18410        2.15530       -0.00120
H          0.03090       -2.25440       -0.00970
H         -2.12640        3.90660        0.05230
H          1.98330        4.15830       -0.00130
H          2.13930        1.64600       -0.01670
