18
gdb 12264	4.10254	1.34992	1.10412	2.2297	68.51	-0.2466	-0.0264	0.2202	1097.5182	0.15209	-384.94921	-384.940402	-384.939457	-384.98275	31.579
C          0.08820        1.47080        0.20310
C          0.02090       -0.04140       -0.03760
C         -1.40440       -0.58150        0.00990
C         -1.68030       -2.12030       -0.08780
C         -2.79060       -1.98830        1.01640
O         -2.94440       -2.94260        2.02060
C         -2.09130       -0.67820        1.37990
O         -1.87340       -0.18720        2.45560
H          1.12160        1.82810        0.16640
H         -0.48060        2.01800       -0.55710
H         -0.32580        1.72330        1.18290
H          0.46290       -0.28970       -1.01040
H          0.62170       -0.56150        0.71870
H         -2.04680       -0.04120       -0.69650
H         -2.00080       -2.51040       -1.05390
H         -0.83380       -2.70100        0.28800
H         -3.75870       -1.80370        0.53230
H         -2.49810       -2.60120        2.80600
