18
gdb 21066	3.31659	1.98462	1.2712	2.5691	75.41	-0.2177	0.0295	0.2472	976.4578	0.15374	-344.021749	-344.012816	-344.011872	-344.056142	30.746
C          0.01120        1.41640       -0.02230
N          0.00170       -0.02820        0.03120
N         -0.05400       -0.73810       -1.11630
C         -0.05050       -2.00700       -0.71940
C          0.00680       -2.13240        0.68460
C          0.03510       -3.39330        1.49500
C          0.03910       -0.82160        1.13880
C          0.10300       -0.26700        2.52370
H          0.92240        1.82440        0.42820
H         -0.02770        1.69920       -1.07350
H         -0.85550        1.83910        0.49750
H         -0.09110       -2.79850       -1.45500
H          1.00720       -3.55990        1.97510
H         -0.72060       -3.39290        2.28880
H         -0.16360       -4.26130        0.85980
H          1.01810        0.31330        2.69520
H         -0.74470        0.39300        2.74450
H          0.08780       -1.08000        3.25300
