19
gdb 16338	2.96569	1.84644	1.4136	1.7763	71.34	-0.2302	0.0618	0.2919	961.3849	0.165097	-365.018378	-365.010047	-365.009103	-365.051085	31.233
C         -0.27960        1.49720        0.03350
C          0.14280        0.02100        0.05570
C          0.77790       -0.40200       -1.23830
C          0.02190       -0.92380       -2.39640
N          0.92000       -1.85710       -1.68800
C          2.29180       -1.52460       -2.21110
C          2.20420       -0.07380       -1.65880
O          2.30530        1.02580       -2.53900
H          0.57280        2.14750       -0.18700
H         -1.03570        1.67680       -0.73740
H         -0.69830        1.80050        0.99770
H          0.84610       -0.15210        0.88080
H         -0.72490       -0.61990        0.24970
H         -1.02930       -1.14340       -2.23360
H          0.27320       -0.60980       -3.40650
H          3.04810       -2.14670       -1.72750
H          2.38250       -1.61200       -3.29910
H          2.85470        0.06110       -0.78410
H          3.23730        1.18790       -2.71760
