22
gdb 17815	4.11124	1.23788	1.06584	0.1274	82.83	-0.2567	0.0873	0.344	1203.7397	0.200996	-313.050873	-313.042373	-313.041429	-313.084104	32.39
C          0.02200        1.56810       -0.27350
C          0.01310        0.06950       -0.05980
C          1.28200       -0.74200       -0.15680
C          0.58320       -0.59430        1.17790
C          1.21470        0.16610        2.31120
C          0.32860        0.62470        3.50840
C          1.49790        0.26750        4.46410
C          2.09930       -0.60990        3.33370
H          0.94280        2.02930        0.09490
H         -0.05600        1.80700       -1.34010
H         -0.81860        2.05160        0.23700
H         -0.87480       -0.41640       -0.45760
H          1.26020       -1.70270       -0.65990
H          2.21100       -0.19480       -0.29070
H          0.03450       -1.47330        1.51270
H          1.78020        1.02230        1.92850
H         -0.04250        1.65290        3.50570
H         -0.52320       -0.05010        3.64540
H          2.12570        1.13780        4.67760
H          1.25170       -0.22000        5.41020
H          1.77630       -1.65290        3.41880
H          3.18240       -0.59510        3.18760
