13
gdb 17869	3.53213	2.27664	2.16528	2.7489	57.58	-0.234	-0.0363	0.1977	687.7051	0.097348	-398.592367	-398.586552	-398.585608	-398.622206	22.482
O          0.01000        0.02820        0.05020
C          0.00210        1.21970       -0.02360
C         -1.10060        2.31150        0.03820
C         -0.04130        3.12290        0.83980
C          1.04030        2.34800        0.01940
N          1.08290        2.92330       -1.34830
C         -0.05700        3.15700       -1.85130
O         -1.25870        2.89940       -1.27700
H         -2.09580        2.10440        0.42490
H         -0.05780        4.20580        0.70830
H         -0.04730        2.85360        1.89780
H          2.04370        2.18720        0.40740
H         -0.17370        3.60970       -2.83210
