16
gdb 4973	3.19933	2.34578	1.37642	0.8383	74.02	-0.2399	-0.0377	0.2022	884.6908	0.13163	-342.84953	-342.842185	-342.84124	-342.881018	27.219
C          0.01300        1.51190       -0.04600
C          0.00940        0.00760       -0.00840
N         -0.01090       -0.63210       -1.17940
C         -0.01420       -1.96730       -1.14730
C          0.00270       -2.66720        0.05000
N          0.02310       -2.04010        1.22900
C          0.02660       -0.70570        1.21170
C          0.04950       -0.00030        2.54080
H          0.90110        1.92380        0.44740
H         -0.00160        1.84810       -1.08350
H         -0.85780        1.92850        0.47360
H         -0.03070       -2.48480       -2.10300
H         -0.00010       -3.75410        0.06810
H          0.93210        0.64240        2.63900
H         -0.82670        0.64620        2.66720
H          0.06070       -0.73950        3.34270
