20
gdb 8707	2.61639	1.56038	1.27677	2.9085	66.41	-0.2514	0.0468	0.2982	1046.3033	0.174942	-423.260381	-423.250308	-423.249364	-423.294844	36.483
C         -0.06140        1.58130        0.05200
C         -0.03800        0.04690       -0.00120
C          0.73790       -0.46510        1.22050
O          1.03380       -1.85200        1.03570
C         -1.47310       -0.52020       -0.00670
O         -2.29500       -0.02480        1.04290
C          0.65950       -0.43830       -1.29780
O          2.07350       -0.34010       -1.24760
H          0.94940        1.98130       -0.07210
H         -0.68730        1.98380       -0.75150
H         -0.47430        1.94130        0.99830
H          1.66390        0.11420        1.33040
H          0.14100       -0.30710        2.13170
H          1.47830       -2.17520        1.82500
H         -1.97070       -0.22460       -0.93800
H         -1.42870       -1.61770        0.01160
H         -2.08850       -0.51760        1.84160
H          0.35230       -1.46980       -1.51980
H          0.33470        0.18800       -2.13570
H          2.35910       -1.05280       -0.66390
