19
gdb 8683	2.68104	1.6205	1.29257	4.6927	71.45	-0.2897	0.0227	0.3124	1054.5359	0.16264	-365.084306	-365.074437	-365.073493	-365.11845	35.29
C          0.00760        1.55820        0.13890
C         -0.02250        0.03800       -0.02610
C          0.72460       -0.47810       -1.27950
O          2.07720       -0.02210       -1.29340
C          0.65810       -2.02200       -1.36450
C          1.38620       -2.61440       -2.57200
C          0.10130        0.10210       -2.48950
N         -0.43490        0.52940       -3.41900
H          1.03620        1.92730        0.14820
H         -0.51960        2.05410       -0.68120
H         -0.47380        1.85050        1.07620
H          0.44610       -0.44770        0.84070
H         -1.05580       -0.32490       -0.06270
H          2.50540       -0.38870       -0.51090
H          1.09340       -2.40660       -0.43210
H         -0.39470       -2.32580       -1.36260
H          0.91820       -2.29780       -3.50860
H          2.43000       -2.29130       -2.59270
H          1.36240       -3.70700       -2.53440
