17
gdb 16003	4.04521	1.91666	1.55195	2.1632	68.9	-0.2394	0.0286	0.268	851.1643	0.14409	-363.864273	-363.857496	-363.856552	-363.895098	26.655
C          0.00530        1.53400        0.01710
C          1.30930        0.75750       -0.05850
C          0.01160        0.03020        0.05460
C         -0.40870       -0.74040        1.28130
C         -1.91820       -1.00130        1.19420
N         -2.32850       -1.50530       -0.11380
C         -1.56920       -1.28560       -1.09910
O         -0.39180       -0.60810       -1.15150
H         -0.23000        2.07040        0.93050
H         -0.34550        2.00410       -0.89410
H          1.80810        0.71840       -1.02010
H          1.97050        0.76050        0.80120
H          0.13060       -1.69520        1.31300
H         -0.14850       -0.18400        2.18690
H         -2.23020       -1.72810        1.95200
H         -2.47640       -0.07890        1.40310
H         -1.81080       -1.66790       -2.08900
