15
gdb 5391	5.22569	1.60364	1.2379	2.4235	72.88	-0.212	-0.0327	0.1793	945.5625	0.121441	-358.892629	-358.885473	-358.884529	-358.924301	26.017
C          0.06110        1.44460        0.07540
N         -0.05040        0.01300       -0.08130
C         -1.22610       -0.67830       -0.02080
C         -2.49050       -0.04490        0.00170
N         -3.61920       -0.73890        0.03430
C         -3.51760       -2.07300        0.04860
C         -2.27490       -2.69600        0.03550
N         -1.13030       -2.01670        0.00330
H          1.11520        1.72210        0.02020
H         -0.46460        1.97640       -0.72680
H         -0.33750        1.80040        1.03660
H          0.77120       -0.55710        0.03710
H         -2.57630        1.03750       -0.00750
H         -4.43910       -2.64590        0.07530
H         -2.19550       -3.78080        0.05430
