18
gdb 9827	3.847	1.42905	1.15549	2.2916	68.99	-0.237	-0.0111	0.226	1076.0795	0.151111	-384.950336	-384.941381	-384.940436	-384.984102	32.692
C         -0.00060        1.49500        0.08970
C          0.08370       -0.02510       -0.01270
C          0.67730       -0.50250       -1.32810
O          0.99550        0.26400       -2.21450
C          0.86910       -1.98570       -1.49110
O          0.48360       -2.80240       -0.42040
C          0.79050       -2.54420       -2.90210
C          2.12020       -2.42450       -2.22290
H          0.99200        1.94630        0.01270
H         -0.60620        1.90890       -0.72050
H         -0.44370        1.79360        1.04380
H          0.67440       -0.46210        0.80190
H         -0.90890       -0.48550        0.09600
H         -0.46540       -2.95560       -0.48100
H          0.35660       -3.53350       -2.99530
H          0.55450       -1.83640       -3.68790
H          2.78970       -1.63830       -2.55000
H          2.58160       -3.32830       -1.84330
