17
gdb 5920	3.78305	1.3778	1.2933	3.1628	71.02	-0.2527	0.0221	0.2748	1007.9554	0.139255	-363.858059	-363.848843	-363.847899	-363.89126	33.75
C          0.05450        1.57770        0.00710
C          0.04990        0.03210        0.03230
C          0.82900       -0.49370        1.25950
N         -1.34260       -0.47440        0.05560
C         -2.25160       -0.22450        1.03130
O         -2.06720        0.44650        2.02720
C          0.66040       -0.48380       -1.19850
C          1.15720       -0.90780       -2.20710
H          1.08270        1.94590       -0.03510
H         -0.48310        1.94500       -0.87040
H         -0.42970        1.95430        0.90920
H          0.35100       -0.13330        2.17140
H          0.83730       -1.58630        1.26460
H          1.86180       -0.13780        1.22460
H         -1.62950       -1.05030       -0.71960
H         -3.22020       -0.71860        0.81290
H          1.60560       -1.27780       -3.09620
