15
gdb 2269	3.85519	2.73623	2.13057	2.2121	56.74	-0.2286	0.0726	0.3012	670.6649	0.123708	-345.605635	-345.598793	-345.597849	-345.635909	26.014
C         -0.06860        1.56250       -0.03340
C          0.09130        0.05950        0.03660
O          1.16410       -0.46300       -0.81110
C          1.68480       -1.22570        0.27860
C          2.18620       -0.31260        1.36760
C          0.70980       -0.63370        1.25770
O         -0.02360       -1.24130        2.25640
H          0.84290        2.07930        0.27900
H         -0.30330        1.87300       -1.05640
H         -0.89320        1.88200        0.61330
H         -0.84620       -0.44670       -0.22930
H          2.03210       -2.23370        0.08840
H          2.67000       -0.82690        2.19330
H          2.59460        0.66290        1.11860
H         -0.02010       -0.66600        3.02910
