18
gdb 13299	4.92013	1.27834	1.12496	0.6754	78.04	-0.2377	0.0272	0.265	1078.1791	0.153974	-310.649979	-310.642164	-310.64122	-310.682343	29.742
C         -0.22670       -1.07360       -0.34650
C         -0.10350        0.11720       -0.23320
C          0.07280        1.55670       -0.08460
C          1.53670        1.97910        0.18800
C          2.45890        1.64220       -1.01790
C          2.58820        2.96080       -1.74140
C          2.14070        3.97940       -1.00960
C          1.63030        3.52490        0.33740
H         -0.34800       -2.12330       -0.44850
H         -0.27940        2.06650       -0.99150
H         -0.56240        1.91510        0.73540
H          1.87020        1.46960        1.09540
H          3.44300        1.28490       -0.68450
H          2.04180        0.84190       -1.63920
H          3.02660        3.04410       -2.72990
H          2.15790        5.02250       -1.30580
H          0.66490        3.97370        0.60380
H          2.32840        3.81130        1.13610
