17
gdb 19054	4.36449	2.0913	1.78814	2.2269	67.11	-0.1987	0.0819	0.2807	784.016	0.143613	-363.799574	-363.793216	-363.792272	-363.829824	25.573
C         -0.00710        1.46220       -0.01120
N         -0.01410        0.00980        0.02510
C         -1.37050       -0.57590        0.00500
C         -1.25340       -1.78140        0.92960
O         -0.22210       -2.66090        0.37490
C          0.72070       -2.07080        1.26780
C         -0.31260       -1.33420        2.07720
C          0.64110       -0.55740        1.19300
H          1.02370        1.82980       -0.02160
H         -0.48930        1.80460       -0.93240
H         -0.53420        1.93180        0.84130
H         -2.12730        0.12620        0.39750
H         -1.65880       -0.87140       -1.00910
H         -2.17760       -2.31640        1.14820
H          1.59770       -2.64650        1.54100
H         -0.51620       -1.24690        3.13550
H          1.45400        0.01630        1.62240
