20
gdb 7697	3.34429	2.02521	1.82848	1.2692	73.91	-0.2545	0.0764	0.3309	846.0672	0.178632	-348.999487	-348.992229	-348.991285	-349.030175	30.18
C         -0.11590        1.53000       -0.01070
C          0.04700        0.01130        0.01280
O         -1.24320       -0.60310       -0.00870
C          0.99980       -0.56180       -1.10090
C          1.99890       -1.32700       -0.21040
C          1.06100       -2.01230        0.82540
C          0.78970       -0.53850        1.24960
C          2.28530       -0.27960        0.90300
H          0.84150        2.05000        0.07860
H         -0.57420        1.85310       -0.95410
H         -0.76580        1.85170        0.80900
H         -1.71540       -0.26950       -0.77860
H          0.44540       -1.21750       -1.77860
H          1.48290        0.22310       -1.69220
H          2.80130       -1.86990       -0.71160
H          0.21560       -2.59690        0.46040
H          1.61610       -2.56600        1.58630
H          0.35980       -0.27990        2.21790
H          2.95510       -0.65970        1.67780
H          2.59750        0.72570        0.60530
