16
gdb 14300	3.81932	1.84144	1.75771	1.4386	64.74	-0.2154	0.0536	0.269	824.2292	0.132073	-379.928065	-379.92085	-379.919906	-379.9593	27.675
C         -0.08300        1.55940        0.01170
C          0.06890        0.05690        0.06430
C          1.36530       -0.66500       -0.19660
O          2.56470        0.08780       -0.05170
C          2.60520        0.44260        1.26730
N          3.64170        1.27710        1.58930
N          1.67430        0.03020        2.04230
C          0.75910       -0.69600        1.19740
H          0.75600        2.07440        0.48340
H         -0.15100        1.90810       -1.02430
H         -0.99400        1.86920        0.53380
H         -0.77980       -0.49390       -0.33680
H          1.47210       -1.48010       -0.90110
H          4.47200        1.16110        1.02760
H          3.81180        1.34140        2.58130
H          0.27780       -1.56090        1.63930
