13
gdb 3692	7.1025	2.16253	1.69276	3.5228	55.94	-0.262	-0.0009	0.2611	725.9997	0.101749	-340.669862	-340.66319	-340.662246	-340.700439	23.23
C          0.04250        1.44750        0.11110
C         -0.00410       -0.02730       -0.03590
N         -0.14330       -0.72940       -1.11040
N         -0.12350       -2.07140       -0.71070
C          0.02600       -2.06710        0.57170
C          0.11130       -3.21920        1.50130
O          0.11030       -0.80420        1.07880
H          0.99060        1.76800        0.55440
H         -0.06330        1.90210       -0.87410
H         -0.76490        1.80310        0.75910
H          1.06410       -3.21910        2.04010
H         -0.69150       -3.18410        2.24470
H          0.02590       -4.14150        0.92620
