15
gdb 20157	3.6632	3.1159	2.79798	0.391	61.1	-0.2386	0.0852	0.3238	601.7996	0.123045	-362.620192	-362.615522	-362.614578	-362.648641	20.595
C         -0.03830        1.57250        0.00180
C          1.47740        1.73360       -0.02120
C          1.98160        0.54020        0.89170
O          0.80170       -0.15000        1.28440
C          0.06150        0.03380        0.06410
C          1.10440       -0.25490       -1.05080
C          2.43500       -0.12470       -0.41750
N          1.91660        0.99020       -1.27170
H         -0.53150        1.98590        0.88380
H         -0.49670        1.95060       -0.91560
H          1.92540        2.71910        0.07810
H          2.65670        0.69340        1.72930
H         -0.84660       -0.56410        0.07210
H          0.90960       -0.87100       -1.91830
H          3.32670       -0.69610       -0.64770
