18
gdb 9761	3.88414	1.5205	1.42211	2.2027	69.15	-0.2391	0.0264	0.2654	954.1057	0.153757	-384.946468	-384.93832	-384.937376	-384.978981	30.83
O         -0.05130        1.43040       -0.15730
C          0.01070        0.02000        0.04780
C         -1.43340       -0.48560        0.05390
O         -2.04900       -0.07890       -1.17220
C         -1.52520       -2.02550        0.17020
C         -2.66110       -2.32550        1.18040
C         -2.90110       -0.99020        1.84020
C         -2.23210       -0.00250        1.25160
H          0.82570        1.75060       -0.38420
H          0.55930       -0.47270       -0.76820
H          0.50300       -0.22240        1.00090
H         -1.78960        0.84330       -1.29720
H         -1.70010       -2.45570       -0.81750
H         -0.57700       -2.42660        0.54390
H         -3.57260       -2.68340        0.68400
H         -2.38030       -3.10410        1.89930
H         -3.57410       -0.87330        2.68360
H         -2.26320        1.04560        1.52600
