9
gdb 1014	9.83231	2.03584	1.68662	2.7733	52.24	-0.2763	-0.0623	0.214	648.9718	0.057354	-338.273162	-338.268017	-338.267072	-338.302227	17.914
N          0.09780       -1.13600       -0.00500
C          0.02570        0.01980        0.00250
C         -0.09500        1.42360        0.01200
C         -1.15910        2.27560        0.03120
N         -0.69690        3.57590        0.03230
C          0.59330        3.45500        0.01420
O          1.04670        2.18680        0.00090
H         -2.20960        2.03440        0.04400
H          1.33870        4.23480        0.00850
