20
gdb 19479	4.32721	1.53329	1.47517	1.0063	74.73	-0.2431	0.0913	0.3345	965.0309	0.179137	-348.984257	-348.976936	-348.975992	-349.015697	28.733
C          0.19180        1.31190        0.12690
O         -0.26600        0.03400       -0.25360
C          0.50630       -0.55530       -1.26750
C          1.83840       -1.24610       -0.81430
C          0.93210       -2.40120       -0.29480
C          0.07250       -2.02020       -1.53790
C          1.00180       -2.39970       -2.70470
C          2.34600       -1.80250       -2.15660
H          1.20110        1.28060        0.56290
H          0.20920        2.00600       -0.72830
H         -0.50380        1.69560        0.87720
H          0.57430        0.12220       -2.13470
H          2.56220       -0.74230       -0.17260
H          1.35900       -3.40790       -0.25630
H          0.43670       -2.15450        0.64300
H         -0.98310       -2.28010       -1.61670
H          1.05210       -3.48150       -2.85470
H          0.69510       -1.94390       -3.65080
H          2.75230       -1.02150       -2.80680
H          3.12160       -2.56160       -2.02260
