17
gdb 1920	4.64219	2.84168	2.44488	0.1766	68.19	-0.2212	0.018	0.2391	643.7864	0.14978	-272.554824	-272.548828	-272.547883	-272.584029	24.764
C         -0.01340        1.55030        0.02640
C          0.02700        0.03950        0.02740
C          0.97430       -0.79530       -0.91280
C          0.61480       -1.92750        0.10760
C          0.66400       -0.80220        1.19540
C         -0.90180       -2.02600       -0.11600
C         -1.28440       -0.74850       -0.16810
H          0.98460        1.97570        0.17490
H         -0.40170        1.93520       -0.92360
H         -0.65960        1.92960        0.82640
H          0.65970       -0.93270       -1.95050
H          2.02090       -0.47570       -0.85980
H          1.19450       -2.84620        0.18990
H          1.68120       -0.48320        1.44830
H          0.06390       -0.94580        2.09760
H         -1.48210       -2.93370       -0.20430
H         -2.26490       -0.31480       -0.31100
