20
gdb 6237	2.53384	1.91037	1.84076	2.3051	70.53	-0.2402	0.0644	0.3046	908.6184	0.17386	-386.133947	-386.124652	-386.123707	-386.16694	35.185
C         -0.19370        1.53630       -0.04470
C         -0.01710        0.02380       -0.03410
O         -1.23870       -0.62750       -0.32050
C          1.23270       -0.47390       -0.80050
O          1.92160       -0.75370        0.43050
C          0.70050       -0.59650        1.21590
C          0.94800        0.28260        2.43300
C          0.15130       -1.96170        1.62330
H          0.74580        2.05590        0.15790
H         -0.53730        1.86280       -1.03510
H         -0.93590        1.85090        0.69520
H         -1.69110       -0.13420       -1.01200
H          1.03660       -1.37950       -1.38990
H          1.77110        0.25590       -1.41740
H          1.41820        1.22960        2.16110
H          0.01030        0.49170        2.95860
H          1.61560       -0.23490        3.12940
H          0.86530       -2.45040        2.29350
H         -0.80510       -1.85860        2.14420
H         -0.00860       -2.60190        0.75430
