16
gdb 6450	4.70429	1.40336	1.30595	2.2763	67.11	-0.2529	0.0263	0.2792	957.3127	0.128433	-383.686303	-383.678279	-383.677335	-383.718191	31.148
O          0.08220        1.45560       -0.06570
C          0.03630        0.04990       -0.03020
C          0.26110       -0.56670        1.38260
C         -1.28320       -0.62780        1.55540
O         -1.66610        0.61600        2.15790
C         -1.40300       -0.54820       -0.00160
C         -1.88730       -1.76020        2.23840
C         -2.41070       -2.69390        2.78680
H         -0.47350        1.76710        0.66100
H          0.69330       -0.30150       -0.82790
H          0.69790       -1.56620        1.33980
H          0.78890        0.04570        2.11620
H         -2.62970        0.65790        2.15480
H         -2.20760        0.08020       -0.39190
H         -1.45320       -1.54160       -0.45390
H         -2.86280       -3.52000        3.27820
