16
gdb 10043	3.23932	1.35789	1.00081	1.2471	73.09	-0.2605	0.0278	0.2883	1144.5468	0.126368	-346.519534	-346.51022	-346.509276	-346.553678	32.938
C         -0.21780        1.42400       -0.11600
O          0.12870        0.06580        0.06330
C          0.68530       -0.54160       -1.08470
C          1.25400       -1.90760       -0.63930
C          2.37460       -1.77650        0.28140
C          3.31320       -1.66490        1.02290
C         -0.30280       -0.71350       -2.15960
C         -1.11570       -0.86400       -3.03210
H          0.65860        2.02890       -0.39420
H         -0.99020        1.54890       -0.88700
H         -0.60530        1.77940        0.84110
H          1.51680        0.07380       -1.46640
H          0.43750       -2.47120       -0.17460
H          1.56020       -2.46300       -1.53240
H          4.13630       -1.57160        1.68710
H         -1.83190       -0.99140       -3.80630
