19
gdb 7443	3.04257	1.45104	1.31494	3.9439	67.59	-0.2587	0.0187	0.2775	1043.6346	0.163472	-402.244731	-402.234984	-402.23404	-402.279118	35.238
C         -0.07360        1.55650       -0.03520
C          0.02410        0.02580       -0.04290
C          0.71390       -0.48460       -1.31430
C          0.77830       -0.50110        1.20540
O          2.09470       -0.01620        1.24530
C          0.08530       -0.10560        2.51950
N         -1.14780       -0.62150        2.74220
O          0.64460        0.64490        3.30390
H          0.92730        1.99600       -0.00330
H         -0.57650        1.91580       -0.93810
H         -0.63250        1.92710        0.83000
H         -0.99270       -0.39220       -0.01200
H          1.74720       -0.12880       -1.35290
H          0.73380       -1.57950       -1.34650
H          0.19350       -0.12980       -2.20950
H          0.79750       -1.60290        1.15210
H          2.13330        0.51630        2.05910
H         -1.57140       -1.28230        2.11500
H         -1.61750       -0.39910        3.60450
