16
gdb 3228	5.17681	2.71535	2.32301	1.5344	63.58	-0.216	0.0775	0.2935	642.5024	0.137042	-288.555445	-288.549299	-288.548355	-288.584842	24.701
C          0.04870        1.48480        0.05130
C         -0.10150       -0.00370       -0.04870
C         -0.96720       -0.81850        0.82950
N          0.50410       -0.93470        0.97220
C          1.08100       -1.73290       -0.18190
C          0.14260       -2.24700       -1.23610
C          0.52610       -0.79140       -1.22390
H          1.07030        1.79160       -0.19990
H         -0.63550        1.99300       -0.63890
H         -0.16860        1.82870        1.06640
H         -1.40810       -0.31060        1.68320
H         -1.56160       -1.64910        0.46680
H          2.08000       -2.12580       -0.04300
H          0.65380       -2.82100       -2.00380
H         -0.86390       -2.59990       -1.04190
H          1.02650       -0.30350       -2.05010
