19
gdb 2361	4.86109	1.80325	1.41326	1.3258	67.63	-0.2609	0.0762	0.3371	899.7362	0.171308	-310.910909	-310.90298	-310.902035	-310.942851	29.499
C          0.02810        1.53670       -0.05890
C          0.03080        0.01210        0.06260
O          0.60110       -0.40980        1.30070
C         -1.36730       -0.57940        0.01500
C         -2.16820       -0.50980       -1.31570
C         -2.67940       -1.95020       -1.03850
C         -1.51900       -2.12480       -0.02160
H          1.04950        1.93430       -0.02990
H         -0.42390        1.85730       -1.00320
H         -0.53480        1.98260        0.76740
H          0.61000       -0.41050       -0.77800
H          1.48600       -0.03670        1.36280
H         -1.95320       -0.15990        0.84120
H         -2.90950        0.28550       -1.42660
H         -1.49830       -0.48080       -2.18230
H         -3.65550       -1.94400       -0.54470
H         -2.72560       -2.64180       -1.88310
H         -0.64350       -2.59610       -0.47980
H         -1.73160       -2.63530        0.91970
