14
gdb 17162	4.31211	1.90315	1.54935	2.218	62.26	-0.2378	-0.0365	0.2013	799.5056	0.106316	-382.446498	-382.440143	-382.439199	-382.477252	23.994
O         -0.08500       -0.01240        0.06300
C          0.04400        1.18610       -0.00470
C          1.35270        1.88440        0.00340
C          2.79100        1.34380        0.09180
C          3.00430        2.87260        0.00700
C          1.78150        3.07170       -0.94150
O          1.15570        4.11310       -0.13980
C          1.71330        3.17930        0.82770
H         -0.83430        1.86430       -0.07970
H          3.06960        0.86190        1.03140
H          3.13860        0.75300       -0.75840
H          3.92460        3.45550        0.00700
H          1.72630        3.13430       -2.02800
H          1.57510        3.37270        1.89110
