17
gdb 3320	6.06086	1.95939	1.75963	1.0901	64.25	-0.2428	0.0861	0.3289	773.7766	0.148655	-309.676719	-309.66985	-309.668906	-309.707505	25.669
C          0.00880        1.30630       -0.15720
O         -0.04130        0.00440        0.37840
C         -1.27670       -0.63300        0.17140
C         -1.60570       -1.20180       -1.25910
C         -1.72130       -2.59500       -0.63170
C         -0.42230       -2.96280        0.02170
C         -1.35730       -2.03690        0.75100
H          0.99600        1.71590        0.07050
H         -0.13170        1.31100       -1.24900
H         -0.75810        1.95990        0.28890
H         -2.09620        0.00820        0.52950
H         -2.54290       -0.81070       -1.66120
H         -0.81740       -1.08620       -2.01020
H         -2.47500       -3.33250       -0.87680
H         -0.36970       -3.96660        0.43070
H          0.51780       -2.58600       -0.37120
H         -1.76320       -2.28420        1.72400
