13
gdb 21273	7.27807	1.38368	1.17239	1.2691	56.76	-0.2318	0.0165	0.2483	964.4223	0.096397	-431.917927	-431.910627	-431.909682	-431.949566	26.03
C          0.02170        1.37680       -0.03210
O          0.00720       -0.05980       -0.04950
C          0.58370       -0.65330       -1.07330
N          0.65940       -1.93840       -1.24830
C          1.34180       -1.99700       -2.44080
N          1.59520       -3.19830       -3.04600
N          1.68170       -0.84240       -2.97490
O          1.14480        0.08860       -2.02650
H          1.04810        1.75210       -0.01670
H         -0.50060        1.77810       -0.90420
H         -0.49800        1.65830        0.88280
H          1.64700       -3.97790       -2.40870
H          2.32250       -3.18090       -3.74480
