11
gdb 23731	5.78569	1.59929	1.25295	2.9085	57.73	-0.2368	-0.082	0.1548	847.2356	0.07244	-438.692145	-438.686006	-438.685062	-438.722977	22.584
F          0.01660        0.01600        0.00360
C         -0.03090        1.34820        0.01070
C         -1.19020        2.02750        0.02920
O         -1.20900        3.36580        0.03590
C         -0.00880        4.09700        0.02410
N         -0.14920        5.35250        0.03330
N          1.19750        3.39930        0.00470
C          1.18270        2.10830       -0.00150
H         -2.17610        1.57910        0.03990
H          0.77530        5.77910        0.02380
H          2.13520        1.57820       -0.01680
