14
gdb 7035	7.08725	0.82461	0.76668	0.6112	61.05	-0.2547	-0.0469	0.2079	1372.1393	0.102336	-419.705362	-419.696383	-419.695439	-419.742415	28.778
O          0.54110       -0.15720        0.41590
C          0.24180        0.86320       -0.14380
C          1.03760        2.15420       -0.00150
C          1.11120        2.94300       -1.30440
O          0.17740        2.97870       -2.07270
C          2.41040        3.68490       -1.59880
C          2.17690        5.01570       -2.30230
O          2.82960        5.99960       -2.07830
H         -0.64110        0.94090       -0.80840
H          0.49660        2.79140        0.71520
H          2.01840        1.94030        0.42900
H          3.03040        3.83710       -0.71260
H          2.97990        3.04700       -2.29240
H          1.35250        5.00370       -3.04200
