16
gdb 17939	3.34762	2.36289	2.12142	0.8625	68.3	-0.22	0.0186	0.2386	730.1648	0.132161	-346.569425	-346.563318	-346.562373	-346.599087	25.689
O         -0.10800        1.40650       -0.00060
C          0.02720        0.03910       -0.00560
C         -1.03950       -1.00240        0.07480
C         -0.51910       -1.69760       -1.17060
C          0.82390       -0.86590       -1.03450
C          1.77160       -1.67120       -0.18680
C          1.29510       -1.73590        1.06530
C          0.08120       -0.88920        1.18040
H          0.70000        1.78960        0.36100
H         -2.07240       -0.90630        0.38590
H         -0.41730       -2.78720       -1.16840
H         -1.08400       -1.37550       -2.04880
H          1.20930       -0.42030       -1.95040
H          2.61930       -2.21760       -0.58180
H          1.70070       -2.32270        1.88040
H         -0.29330       -0.53810        2.13520
