18
gdb 17897	3.73873	1.92882	1.70163	0.2344	66.55	-0.2294	0.0756	0.3051	830.6762	0.156194	-384.919268	-384.912515	-384.911571	-384.949702	27.381
O         -0.04490        1.37100        0.07140
C          0.00910       -0.03930        0.00820
C         -1.42520       -0.61380       -0.12020
C         -1.28880       -0.40150       -1.66040
C          0.23170       -0.61490       -1.42380
O          0.59450       -1.98510       -1.31960
C         -0.46120       -2.81890       -0.84190
C         -1.36070       -2.11660        0.19850
H          0.84370        1.70940       -0.08140
H          0.65150       -0.46590        0.79160
H         -2.21590       -0.09320        0.42370
H         -1.81410       -1.07140       -2.34420
H         -1.48570        0.63520       -1.93300
H          0.96210       -0.13700       -2.08280
H         -1.07630       -3.14770       -1.69130
H          0.01790       -3.71000       -0.42710
H         -0.97310       -2.25890        1.21410
H         -2.35900       -2.56770        0.16650
