19
gdb 13521	3.12878	1.71144	1.19925	2.7354	72.48	-0.2172	-0.0096	0.2076	1035.305	0.163701	-365.05803	-365.049183	-365.048239	-365.092229	31.687
C         -0.30880        0.26360       -0.91490
N         -0.15330       -0.58160        0.24940
C         -1.22250       -0.53770        1.27220
C         -0.14840       -0.56950        2.38450
C          0.86230       -0.22220        1.26640
C          2.17220       -1.00280        1.24130
C          2.74300       -1.34900       -0.11820
O          2.71340       -1.31590        2.27720
H          0.57330        0.19130       -1.55940
H         -1.17350       -0.07020       -1.49790
H         -0.46050        1.32990       -0.65850
H         -1.78190        0.41110        1.26270
H         -1.93640       -1.36620        1.21810
H         -0.25360        0.15260        3.19280
H          0.03040       -1.55870        2.80680
H          1.11540        0.85470        1.25600
H          2.95070       -0.43480       -0.68700
H          3.66300       -1.92260        0.00010
H          2.00420       -1.92060       -0.68840
