13
gdb 816	7.07707	1.99273	1.57507	2.4693	61.8	-0.1873	-0.0122	0.1751	733.962	0.103108	-340.601771	-340.595453	-340.594509	-340.631769	23.572
O         -0.10110        1.33880       -0.01370
N          0.02670       -0.06870       -0.04250
C         -1.12510       -0.62540        0.01990
C         -1.26370       -2.14350       -0.00120
N         -2.71500       -2.34070       -0.16390
C         -3.33260       -1.11640        0.02620
C         -2.46860       -0.07940        0.09450
H          0.81650        1.62150       -0.07690
H         -0.70360       -2.60280       -0.82030
H         -0.91050       -2.58270        0.94070
H         -3.12550       -3.14910        0.27910
H         -4.41470       -1.07940        0.05810
H         -2.71170        0.96840        0.13680
