12
gdb 4648	6.88342	1.33564	1.12644	5.2357	63.47	-0.2642	-0.0402	0.2241	978.3172	0.084681	-377.57614	-377.569256	-377.568312	-377.607561	24.163
C          0.03900        1.46720       -0.02960
C         -0.05990       -0.01320       -0.00340
N         -1.09240       -0.75980       -0.22270
C         -0.62040       -2.06350       -0.06780
C          0.70250       -2.02150        0.24360
O          1.07440       -0.71970        0.28820
C         -1.44010       -3.21140       -0.22330
N         -2.09120       -4.16010       -0.34560
H          0.76830        1.79670       -0.77620
H         -0.93860        1.88130       -0.27550
H          0.36050        1.85410        0.94240
H          1.45480       -2.76370        0.44630
