20
gdb 7583	3.11059	1.57776	1.49124	2.9089	70.28	-0.2359	0.067	0.3028	986.2325	0.175083	-386.125478	-386.116344	-386.115399	-386.158894	33.892
C          0.64960       -0.04410       -1.49690
C          0.04120        0.10970       -0.10030
O          0.01570        1.47190        0.30540
C         -1.34310       -0.54940        0.04670
C         -2.43840        0.14970       -0.74910
C         -1.33620       -2.09960       -0.03450
C         -1.81130       -2.04190        1.42830
O         -1.71680       -0.60560        1.45540
H          1.65690        0.38030       -1.50730
H          0.71480       -1.09280       -1.80220
H          0.05400        0.48500       -2.25040
H          0.69210       -0.38180        0.63230
H         -0.37930        1.98630       -0.40630
H         -2.23190        0.13670       -1.82460
H         -3.39940       -0.34420       -0.58240
H         -2.53790        1.18790       -0.41800
H         -2.03030       -2.53770       -0.75370
H         -0.34820       -2.54330       -0.17540
H         -2.83770       -2.38940        1.60360
H         -1.15250       -2.51200        2.16810
