15
gdb 3440	4.47406	2.93763	2.13806	1.7197	60.86	-0.2338	0.0081	0.2419	636.5156	0.126687	-308.50658	-308.500593	-308.499648	-308.53603	23.716
O          0.15390        1.40230       -0.21950
C          0.03440       -0.00270       -0.03510
C          0.66490       -0.51620        1.25200
C         -0.16610       -1.29630        1.94460
C         -1.50500       -1.39790        1.28440
C         -2.26020       -0.08460        1.21010
C         -1.40200       -0.53310        0.04860
H         -0.34600        1.82590        0.48710
H          0.54140       -0.42590       -0.91140
H          1.66750       -0.22530        1.54350
H          0.05550       -1.77360        2.89300
H         -2.05930       -2.32920        1.29930
H         -3.33420       -0.12110        1.06040
H         -1.92400        0.72200        1.85540
H         -1.90760       -0.80240       -0.87030
