16
gdb 18449	3.41543	1.69343	1.39447	3.4156	65.95	-0.2347	-0.0227	0.2119	918.5889	0.129255	-383.703417	-383.695944	-383.695	-383.735342	27.659
C          1.60650        0.61570       -1.89790
C          1.83110       -0.72190       -1.22790
O          3.23120       -1.05210       -0.94520
C          2.86870       -1.49900        0.36210
C          2.43400       -0.34190        1.22600
C          3.05730        1.00380        1.13290
O          3.01220        1.81690        2.02640
C          1.46210       -1.00260        0.22670
H          2.15620        0.65650       -2.84370
H          0.54140        0.73860       -2.12130
H          1.92500        1.45440       -1.27610
H          1.42240       -1.52390       -1.85750
H          3.30300       -2.42090        0.73030
H          2.17130       -0.61280        2.24550
H          3.61450        1.20410        0.19720
H          0.52860       -1.41830        0.58000
