18
gdb 13496	3.19086	1.66798	1.42234	1.8104	69.08	-0.217	0.0223	0.2394	959.5129	0.15367	-381.098293	-381.089897	-381.088953	-381.131294	30.405
C         -0.00370        1.50030       -0.09680
N          0.02920        0.04880        0.05740
C          0.83860       -0.35170        1.20320
C         -1.28170       -0.54540        0.00840
C         -1.42210       -2.08620       -0.08300
O         -2.29520       -2.08510        1.08780
C         -2.13710       -0.72510        1.27230
N         -2.54650        0.02840        2.18730
H          1.02040        1.87390       -0.19650
H         -0.54920        1.76200       -1.00900
H         -0.47910        2.01910        0.75170
H          0.44230        0.01720        2.16320
H          0.91080       -1.44160        1.25940
H          1.85270        0.03860        1.07540
H         -1.85530       -0.04450       -0.77640
H         -1.93990       -2.47730       -0.96160
H         -0.51090       -2.65760        0.10540
H         -3.08070       -0.48830        2.88920
