13
gdb 425	4.92227	4.22037	2.37488	3.6013	51.94	-0.2414	0.0394	0.2809	542.8932	0.108561	-286.514923	-286.508751	-286.507807	-286.544706	21.114
C         -0.03530        1.43900        0.00890
N         -0.01460        0.00100        0.00140
C         -1.07930       -1.00380        0.00190
C          0.03670       -2.08770       -0.01170
C          1.02570       -0.89690       -0.01100
O          2.21970       -0.74580       -0.01820
H          1.00190        1.78310        0.00270
H         -0.54640        1.84080       -0.87500
H         -0.53280        1.83190        0.90450
H         -1.70830       -0.98690        0.89940
H         -1.71940       -0.97600       -0.88750
H          0.09180       -2.71960        0.87620
H          0.08040       -2.70890       -0.90780
