17
gdb 6700	7.28433	0.72987	0.68448	3.8713	77.48	-0.2303	-0.0602	0.1701	1607.0917	0.139215	-363.820561	-363.811058	-363.810114	-363.85588	31.972
C         -0.04240        1.48020        0.03410
N          0.03480        0.02760        0.02330
C          0.83310       -0.47830        1.13070
C         -1.29960       -0.56250       -0.01400
C         -1.29320       -2.00060       -0.25560
C         -1.32630       -3.19250       -0.44990
C         -1.32160       -4.61190       -0.68800
O         -2.31510       -5.29060       -0.81440
H          0.96790        1.89770       -0.00130
H         -0.58660        1.83260       -0.84790
H         -0.54600        1.88500        0.93330
H          0.41330       -0.21640        2.12120
H          0.90680       -1.56700        1.06880
H          1.84290       -0.06260        1.06980
H         -1.87550       -0.37140        0.91620
H         -1.86620       -0.08150       -0.82170
H         -0.30660       -5.05510       -0.75000
