15
gdb 3201	4.10431	3.46479	3.05522	2.4849	55.12	-0.2475	0.0878	0.3353	552.7923	0.128648	-345.659797	-345.654708	-345.653764	-345.688445	20.536
C         -0.00720        1.56410       -0.01350
O          1.38690        1.94180       -0.02880
C          2.10310        0.71730       -0.00260
C          1.26790       -0.21000       -0.88880
C          0.04310        0.02500        0.02170
C          0.65770       -0.36550        1.37900
O          2.01330        0.12380        1.28300
H         -0.49490        1.99490        0.86870
H         -0.50230        1.94980       -0.91380
H          3.14890        0.91190       -0.23220
H          1.14430        0.16260       -1.90730
H          1.62780       -1.24050       -0.89470
H         -0.89000       -0.47810       -0.23000
H          0.15410        0.11150        2.22790
H          0.66950       -1.45100        1.54050
