22
gdb 11623	5.24198	0.81883	0.74838	1.4368	78.97	-0.2571	0.0741	0.3311	1572.3766	0.19899	-350.197461	-350.187844	-350.186899	-350.232341	35.365
C          0.00140        1.50830       -0.14610
C          0.01200       -0.00750        0.05500
O          0.65080       -0.35680        1.28360
C         -1.39040       -0.62060       -0.04670
C         -1.40100       -2.14910        0.07890
C         -2.79360       -2.74110        0.04160
C         -3.46740       -3.03760       -1.27600
C         -3.01190       -4.16930       -0.38560
H          1.01280        1.91220       -0.04840
H         -0.38760        1.77610       -1.13380
H         -0.63510        1.99470        0.60430
H          0.65040       -0.46280       -0.71350
H          0.15000        0.05620        1.99620
H         -2.02270       -0.18060        0.74020
H         -1.84420       -0.32250       -1.00050
H         -0.80380       -2.58250       -0.73530
H         -0.89450       -2.43050        1.00920
H         -3.45100       -2.38330        0.83150
H         -4.53180       -2.85350       -1.37300
H         -2.90260       -2.85270       -2.18460
H         -2.14390       -4.74080       -0.69830
H         -3.76540       -4.75610        0.12840
