17
gdb 5827	2.80322	1.70147	1.39453	3.8194	64.37	-0.2765	0.0118	0.2883	954.9953	0.138777	-401.010403	-401.000896	-400.999952	-401.043906	34.557
C         -0.04680        1.55340        0.00830
C          0.00990        0.02440        0.05110
C          0.68020       -0.47950        1.32900
O         -1.29630       -0.54120        0.04560
C          0.76020       -0.48910       -1.22040
O          2.08680       -0.00730       -1.33240
C          0.72120       -1.96230       -1.30400
N          0.75650       -3.11590       -1.36060
H          0.95680        1.98140       -0.04240
H         -0.59910        1.89660       -0.87550
H         -0.55510        1.93350        0.89810
H          0.11890       -0.12860        2.19820
H          0.69620       -1.57230        1.35160
H          1.70370       -0.10210        1.41080
H         -1.81850       -0.10480       -0.63670
H          0.23240       -0.09330       -2.09700
H          2.64120       -0.49670       -0.71450
