15
gdb 10808	5.25743	1.52995	1.21821	4.6334	65.1	-0.2198	0.0038	0.2236	956.1229	0.119915	-399.85579	-399.848363	-399.847419	-399.887684	27.063
C         -0.05390        1.53830        0.04710
C         -0.00680        0.04350       -0.02750
C          0.02210       -0.66100       -1.15760
N          0.06360       -2.05860       -1.12210
C         -0.31460       -2.79500       -0.01440
O         -0.51080       -3.98170       -0.04560
O         -0.49350       -2.07980        1.11890
C          0.04740       -0.75000        1.24900
H          0.79850        1.94160        0.60990
H         -0.03460        1.98580       -0.95040
H         -0.96050        1.88880        0.55730
H          0.01190       -0.21800       -2.14650
H          0.06810       -2.58670       -1.97890
H          1.08000       -0.83240        1.62410
H         -0.54780       -0.28070        2.03840
