14
gdb 2591	3.16324	2.87913	1.80866	3.5623	58.43	-0.275	0.0173	0.2923	722.2829	0.112319	-324.562156	-324.554887	-324.553943	-324.593375	25.826
C          0.15270        1.30280        0.18260
O         -0.19810       -0.02470       -0.19120
C          0.58720       -0.55270       -1.20800
C          1.94390       -1.14130       -0.85130
C          0.78260       -2.04600       -1.16740
C          0.44090        0.09460       -2.49770
N          0.32070        0.63350       -3.51420
H          1.19210        1.35750        0.53270
H          0.02050        2.00180       -0.65290
H         -0.51970        1.58170        0.99550
H          2.74960       -1.05210       -1.57010
H          2.23170       -1.03820        0.18850
H          0.28790       -2.54280       -0.34140
H          0.77890       -2.58400       -2.10740
