12
gdb 628	6.85154	2.84394	2.33507	2.0825	46.79	-0.251	-0.027	0.224	553.6096	0.094448	-306.361448	-306.355078	-306.354134	-306.391783	21.502
C          0.21050        0.51250        0.84620
C         -0.08540        0.40400       -0.63420
O          0.60800        0.90430       -1.49010
C         -1.32460       -0.35140       -1.03990
C         -1.56630       -1.73260       -0.57230
O         -2.29430       -0.64220       -0.03040
H          1.16920        1.01200        0.98640
H         -0.58580        1.08210        1.33670
H          0.22670       -0.47060        1.32720
H         -1.72070       -0.06060       -2.01140
H         -2.12840       -2.40770       -1.21530
H         -0.85630       -2.21000        0.10080
