15
gdb 7129	6.60555	0.83455	0.75879	2.7578	60.32	-0.2746	-0.0284	0.2462	1402.6713	0.11643	-436.953847	-436.944944	-436.943999	-436.988434	29.848
O         -0.24930        1.40300        0.12660
C          0.04760        0.02030        0.00920
C         -1.29000       -0.70660       -0.02460
C         -1.16720       -2.19320       -0.15710
N         -0.06770       -2.81120       -0.17220
O         -2.42900       -2.77410       -0.30140
C         -2.69850       -3.94630        0.34230
O         -3.69920       -4.55910        0.14510
H          0.58180        1.88570        0.15090
H          0.61220       -0.20220       -0.90700
H          0.64700       -0.34430        0.85480
H         -1.86370       -0.47760        0.88220
H         -1.89850       -0.33330       -0.85690
H         -0.16880       -3.81430       -0.32310
H         -1.91070       -4.22290        1.06360
