14
gdb 4505	3.61531	1.84125	1.23547	0.8794	61.34	-0.1888	0.0188	0.2076	933.8056	0.106968	-415.892007	-415.884026	-415.883082	-415.92418	28.659
C          0.04380        1.44260        0.03240
C         -0.04400       -0.04030        0.00360
N         -1.10810       -0.78000        0.09500
C         -0.64840       -2.08620        0.00350
N         -1.53260       -3.16480        0.00390
C          0.69940       -2.06480       -0.14190
O          1.64340       -3.02560       -0.17730
O          1.10400       -0.74130       -0.13750
H          0.68700        1.78610        0.84940
H          0.46190        1.83370       -0.90150
H         -0.95750        1.85160        0.17060
H         -2.37650       -2.94110        0.51590
H         -1.11380       -4.01180        0.36560
H          1.96360       -3.14350       -1.08110
