15
gdb 14324	4.61686	1.89299	1.59513	4.3573	61.7	-0.2525	0.0563	0.3089	809.5745	0.120773	-399.810866	-399.804458	-399.803514	-399.842226	24.177
N          0.00370        1.32670       -0.14510
C          0.02890        0.07710       -0.01860
O          1.12010       -0.73760       -0.15390
C          0.75780       -2.09780        0.07690
C          1.10250       -2.61370        1.49530
C         -0.38580       -2.40960        1.92350
C         -0.73790       -2.00720        0.46550
O         -1.08290       -0.64290        0.27510
H          0.93040        1.67150       -0.38310
H          1.06980       -2.69710       -0.78040
H          1.42730       -3.65650        1.50240
H          1.84570       -2.00900        2.01750
H         -0.89520       -3.30350        2.28800
H         -0.55570       -1.59510        2.62980
H         -1.46390       -2.62860       -0.05980
