17
gdb 3293	4.63868	2.52217	2.06115	1.3256	63.25	-0.2489	0.0725	0.3214	689.8311	0.149584	-309.687401	-309.680887	-309.679943	-309.717694	25.295
O         -0.13670        1.46340        0.18940
C         -0.01340        0.06600        0.04330
C          0.36360       -0.79690        1.28840
C         -0.86580       -1.71260        1.01180
C         -2.10400       -1.38890        1.87740
C         -2.45590       -0.21070        0.91890
C         -1.35310       -0.68050       -0.07450
H          0.74270        1.83300        0.31690
H          0.63780       -0.18200       -0.80800
H          1.34260       -1.28040        1.24380
H          0.28850       -0.24260        2.22920
H         -0.64500       -2.75720        0.79020
H         -2.85390       -2.18460        1.84520
H         -1.91230       -1.14220        2.92660
H         -3.47030       -0.23680        0.51600
H         -2.27270        0.78740        1.32100
H         -1.68860       -0.95780       -1.07460
