22
gdb 6577	3.48852	1.65197	1.42692	0.2618	82.29	-0.2415	0.0876	0.3291	1014.9057	0.1992	-313.057711	-313.049014	-313.04807	-313.089857	34.456
C          0.03800        1.56660        0.05750
C          0.04700        0.06560        0.00460
C         -0.89850       -0.79360        0.79650
C          0.58360       -0.96330        1.00560
C          1.23770       -1.77800       -0.12990
C          2.76220       -1.65450       -0.08080
C          0.82350       -3.24270       -0.26670
C          0.61470       -0.76350       -1.15960
H          1.01950        1.98370       -0.19680
H         -0.69040        1.98570       -0.64820
H         -0.22930        1.92660        1.05680
H         -1.41650       -0.28630        1.60540
H         -1.49340       -1.56610        0.31390
H          1.03910       -0.79560        1.97690
H          3.17470       -2.21570        0.76620
H          3.21850       -2.04770       -0.99650
H          3.07220       -0.61000        0.03010
H         -0.26360       -3.36120       -0.29190
H          1.22530       -3.67750       -1.18960
H          1.20410       -3.83710        0.57220
H         -0.12720       -1.17060       -1.85580
H          1.37970       -0.23740       -1.73780
