17
gdb 7637	4.52729	1.27381	1.22296	3.6365	65.18	-0.2539	0.0232	0.2771	1036.6939	0.141591	-401.024471	-401.016294	-401.01535	-401.057078	30.474
C         -0.01360        1.59260        0.04470
C          0.03110        0.06350       -0.01100
O          0.84840       -0.47050        1.01790
C         -1.37010       -0.55390        0.02760
C         -1.46520       -2.10000        0.18070
C         -2.26850       -1.81340        1.46800
O         -2.89360       -2.45170        2.26730
N         -2.03040       -0.45090        1.34840
H          1.00130        1.99710        0.03220
H         -0.56550        2.00780       -0.80550
H         -0.50100        1.93300        0.96620
H          0.50500       -0.24930       -0.94990
H          0.36230       -0.35680        1.84460
H         -1.98370       -0.16060       -0.79120
H         -2.03410       -2.62360       -0.58870
H         -0.50740       -2.59230        0.35170
H         -2.56570        0.30870        1.74720
