15
gdb 9703	3.37373	1.82109	1.63736	2.3652	60.93	-0.2538	-0.0409	0.2129	838.0946	0.117806	-399.823811	-399.816139	-399.815195	-399.856582	27.135
C          0.11820        1.51970        0.24900
C         -0.01520        0.00870        0.07200
C          0.69420       -0.56990       -1.18430
N          1.59910       -1.60780       -0.66820
C          1.49940       -1.56010        0.59180
O          0.65540       -0.66650        1.17420
C         -1.49200       -0.37740        0.15410
O         -2.23100       -0.39050       -0.79370
H          1.17580        1.79780        0.25740
H         -0.37760        2.03280       -0.58000
H         -0.33530        1.85320        1.18720
H         -0.02600       -0.99010       -1.89120
H          1.27320        0.19440       -1.71430
H          2.04370       -2.18090        1.29460
H         -1.83380       -0.62810        1.18220
