16
gdb 7310	3.38879	1.36485	1.09524	1.2589	63.69	-0.2463	0.0092	0.2555	1082.1688	0.129034	-417.093755	-417.084682	-417.083738	-417.128598	31.485
C         -0.83220        1.68780       -0.98530
C         -0.26810        0.54110       -0.15420
O         -1.33050       -0.36750        0.16100
C         -1.37030       -0.88970        1.40660
N         -2.12580       -1.86940        1.64900
C          0.87170       -0.16520       -0.91140
N          0.62180       -1.45110       -1.25960
O          1.90030        0.43290       -1.16110
H         -0.01470        2.34470       -1.28820
H         -1.32500        1.30000       -1.88130
H         -1.56240        2.25700       -0.40500
H          0.17260        0.93300        0.77110
H         -0.71590       -0.36900        2.11870
H         -2.06930       -2.11960        2.63400
H         -0.27620       -1.86900       -1.08300
H          1.31100       -1.94470       -1.80230
