19
gdb 14960	4.18442	1.51936	1.18928	2.6447	75.08	-0.2388	0.0258	0.2646	1049.9905	0.166903	-365.084709	-365.076687	-365.075742	-365.117403	29.615
C          0.02940        1.46310        0.14400
N          0.01430        0.01060        0.11680
C         -1.07280       -0.60920       -0.05910
C         -1.11710       -2.12080       -0.03190
C         -2.11240       -2.71120       -1.04000
C         -3.46350       -2.01010       -0.87710
C         -3.27480       -0.50800       -1.04430
O         -2.28040        0.03720       -0.16490
H          0.92080        1.81550       -0.38520
H         -0.86030        1.93120       -0.29130
H          0.12090        1.80700        1.18220
H         -0.10110       -2.48870       -0.18140
H         -1.42520       -2.41950        0.98030
H         -1.74230       -2.56110       -2.06260
H         -2.20580       -3.79130       -0.89090
H         -4.19270       -2.36130       -1.61550
H         -3.87720       -2.21930        0.11720
H         -2.98980       -0.27940       -2.08190
H         -4.19000        0.04520       -0.81810
