17
gdb 9072	3.78888	1.13212	1.00325	3.625	71.55	-0.253	0.0224	0.2754	1187.4236	0.140293	-363.858463	-363.8492	-363.848256	-363.893064	32.596
C         -0.56990        1.21530        0.04690
C          0.19930       -0.09750       -0.18830
C          1.26230        0.03570       -1.31150
N          0.69740        0.40400       -2.59930
C          0.10840       -0.50710       -3.41890
O         -0.01430       -1.68650       -3.16310
C          0.84650       -0.56060        1.03590
C          1.40750       -0.91870        2.03720
H          0.10700        2.00840        0.38120
H         -1.06090        1.53800       -0.87560
H         -1.33630        1.08230        0.81410
H         -0.50770       -0.86680       -0.52230
H          2.00330        0.78950       -1.03070
H          1.77420       -0.92250       -1.42570
H          0.72580        1.36560       -2.89560
H         -0.24780       -0.04900       -4.36320
H          1.88810       -1.25130        2.92370
