17
gdb 15117	8.16835	0.71722	0.68763	5.0337	69.63	-0.2764	0.0337	0.3101	1563.9889	0.141521	-363.858509	-363.849971	-363.849026	-363.892779	29.51
N          0.04000       -1.12590        0.39460
C          0.01300        0.01520        0.21470
C          0.00070        1.45830       -0.01510
C          1.41510        2.06990       -0.02890
C          1.38300        3.58110       -0.28910
C          2.76720        4.18350       -0.28140
C          3.04410        5.51490        0.26970
O          3.38320        4.33450        1.00030
H         -0.50730        1.65230       -0.96730
H         -0.60830        1.92900        0.76580
H          1.90530        1.87690        0.93030
H          2.01480        1.56850       -0.79690
H          0.90940        3.78550       -1.25900
H          0.77620        4.07850        0.47710
H          3.44410        3.80450       -1.05030
H          3.88760        6.09320       -0.10430
H          2.22700        6.10300        0.68590
