12
gdb 7901	3.50105	2.02782	1.38154	4.8886	52.07	-0.2852	-0.0748	0.2104	838.1683	0.083397	-455.685508	-455.678706	-455.677762	-455.716876	24.234
C         -0.00210        1.53040        0.01100
C          0.04740        0.02130        0.00430
O          0.75040       -0.46120       -1.14340
C          1.79210       -1.23920       -0.75970
O          2.54800       -1.78580       -1.49700
C          1.78430       -1.24620        0.77430
O          2.53270       -1.79970        1.51420
O          0.73880       -0.47180        1.15460
H          1.01130        1.93970        0.01830
H         -0.52660        1.88340       -0.88010
H         -0.53600        1.87530        0.89980
H         -0.95220       -0.42640       -0.00280
