17
gdb 7734	3.32624	1.78717	1.21321	3.7333	72.74	-0.2129	-0.0459	0.1669	985.6881	0.143429	-363.892765	-363.885151	-363.884207	-363.924678	28.529
C         -0.00680        1.51670        0.03490
C         -0.03960        0.01850       -0.02710
C         -0.13160       -0.66660       -1.18010
C         -0.04500       -2.13730       -1.23490
O         -0.10690       -2.75810       -2.27860
C          0.18570       -2.83150        0.10980
N         -0.36760       -2.11680        1.25980
C          0.05820       -0.72170        1.29280
H          0.89930        1.86310        0.54830
H         -0.03140        1.96640       -0.96020
H         -0.85540        1.90240        0.61420
H         -0.22410       -0.16090       -2.13770
H         -0.22540       -3.84290        0.05950
H          1.27230       -2.93490        0.24950
H         -1.38120       -2.14150        1.19660
H          1.10380       -0.67790        1.63990
H         -0.52680       -0.19400        2.05550
