18
gdb 6065	5.02295	0.90907	0.81359	1.882	69.65	-0.2473	-0.013	0.2343	1414.6332	0.149357	-384.991974	-384.982065	-384.981121	-385.028563	33.283
C          0.02400        1.50260        0.00690
C         -0.22990        0.00650        0.02120
O         -0.72100       -0.54930        0.97800
C          0.15300       -0.74610       -1.24610
C          0.13700       -2.26180       -1.08560
C         -0.14420       -3.01040       -2.38150
C          0.09000       -4.50930       -2.34630
O         -0.54450       -2.44940       -3.37680
H          1.10390        1.69280        0.00600
H         -0.37820        1.95840       -0.90410
H         -0.42210        1.96590        0.88750
H         -0.56030       -0.46340       -2.03250
H          1.12310       -0.38250       -1.60510
H          1.06820       -2.63670       -0.64440
H         -0.64470       -2.53560       -0.36370
H         -0.39360       -4.96010       -1.47320
H         -0.28470       -4.96790       -3.26210
H          1.16360       -4.71210       -2.25350
