14
gdb 5774	6.20685	1.47182	1.29008	1.9942	65.28	-0.2222	0.0016	0.2238	916.6158	0.108252	-382.54089	-382.534407	-382.533462	-382.572035	24.036
C          0.45520        1.50040        0.21670
O          1.15940        0.35860       -0.26380
C         -0.22400        0.20010        0.10070
C         -0.53450       -0.64510        1.25860
C         -1.42040       -1.66540        1.43370
C         -1.27570       -2.09950        2.79070
C         -0.31190       -1.31140        3.33300
O          0.14710       -0.41860        2.41730
H          0.75400        1.85170        1.20220
H          0.25150        2.27670       -0.52020
H         -0.89160        0.03730       -0.74410
H         -2.09020       -2.06170        0.68650
H         -1.81350       -2.89150        3.28750
H          0.14610       -1.25730        4.30680
