15
gdb 12184	3.7335	1.46031	1.2129	5.3216	66.95	-0.2651	-0.0445	0.2206	1000.1482	0.117904	-362.688466	-362.680523	-362.679579	-362.721275	28.175
C          0.16410        1.62420       -0.07300
C          0.10040        0.10470       -0.00600
C          0.65070       -0.76150       -1.18320
C          1.36370       -1.71750       -0.16770
C          2.72720       -2.13290       -0.41850
N          3.82460       -2.43450       -0.62260
C          1.10220       -0.61040        0.91140
O          1.59440       -0.36760        1.96740
H          1.16860        1.96330       -0.34420
H         -0.53960        2.01260       -0.81530
H         -0.08670        2.06060        0.89780
H         -0.91130       -0.22530        0.26490
H         -0.08300       -1.23350       -1.83570
H          1.37590       -0.21360       -1.78770
H          0.74320       -2.59070        0.06230
