18
gdb 20058	4.44616	1.58439	1.43647	1.4735	72.71	-0.2331	0.0185	0.2517	934.01	0.154718	-347.79041	-347.783105	-347.782161	-347.822393	27.667
C         -0.29280        1.35790       -0.11030
C          1.14290        1.02600        0.22120
C          0.13980       -0.07730        0.01470
C         -0.32050       -0.92980        1.18780
O         -0.33090       -0.16820        2.40060
C         -1.59420       -0.27770        3.05260
C         -2.45200       -1.07460        2.11060
C         -1.73080       -1.45020        1.06230
H         -0.90030        1.76440        0.69010
H         -0.52560        1.74320       -1.09690
H          1.90180        1.18060       -0.53810
H          1.46690        1.21220        1.23820
H          0.22620       -0.64580       -0.90810
H          0.39250       -1.76570        1.30260
H         -1.47280       -0.77680        4.02810
H         -1.99600        0.72710        3.25210
H         -3.49460       -1.29560        2.30160
H         -2.06280       -2.04160        0.21840
