12
gdb 8652	2.58526	1.84263	1.41147	3.8758	55.3	-0.3201	-0.0362	0.2839	881.9431	0.082176	-414.656544	-414.648417	-414.647473	-414.689083	28.498
O          0.04290        1.33820        0.28210
C          0.05840       -0.04730        0.02870
C         -1.41380       -0.57360        0.04750
O         -2.05010       -0.14470        1.22240
C         -2.10580       -0.03270       -1.15480
N         -2.58780        0.47370       -2.07430
C         -1.41490       -2.04570        0.00600
N         -1.35290       -3.19710       -0.03960
H         -0.19450        1.80240       -0.53010
H          0.54720       -0.31100       -0.91500
H          0.58590       -0.52300        0.85880
H         -1.70480        0.74790        1.38600
