16
gdb 18516	5.47267	1.11011	1.04179	1.5695	73.8	-0.2365	0.0503	0.2868	1168.7999	0.1292	-346.537481	-346.529446	-346.528502	-346.571761	28.317
C         -0.02760        1.51940       -0.04630
C         -0.03370        0.06390       -0.03080
C         -0.04380       -1.14050       -0.01480
C         -0.06080       -2.58890        0.01070
C          0.36830       -3.34850        1.33520
C         -1.00540       -4.02800        1.33080
O         -1.98690       -2.98670        1.39900
C         -1.43160       -3.30190        0.12560
H          0.63850        1.92250        0.72480
H          0.31230        1.90840       -1.01270
H         -1.02930        1.92250        0.13990
H          0.49890       -2.99860       -0.83720
H          1.20620       -4.02790        1.16570
H          0.56500       -2.71740        2.20310
H         -1.29010       -5.00370        1.70590
H         -2.11840       -3.56100       -0.67200
