18
gdb 17800	4.34891	1.57192	1.38798	2.5356	72.57	-0.2373	-0.0137	0.2236	953.0993	0.153833	-347.771365	-347.76386	-347.762915	-347.803717	28.193
C         -1.29660        0.71730        0.46430
C         -0.02130       -0.06080        0.18120
O          0.90980       -0.05930        0.95700
C          0.00340       -0.81040       -1.13330
C          1.22920       -1.67690       -1.54360
C          0.79000       -2.73290       -0.48250
C         -0.51550       -2.29760       -1.20750
C          0.27750       -2.40440       -2.54060
H         -1.40580        1.53230       -0.26090
H         -2.17730        0.07520        0.35200
H         -1.26250        1.13330        1.47190
H         -0.41170       -0.17580       -1.92620
H          2.23880       -1.31400       -1.73400
H          1.11290       -3.76040       -0.67020
H          0.90850       -2.45780        0.56370
H         -1.53450       -2.63720       -1.01370
H         -0.09620       -1.82220       -3.38780
H          0.57410       -3.41180       -2.84400
