17
gdb 12595	3.2031	2.09527	1.29735	3.5049	71.33	-0.2032	0.0063	0.2095	933.8262	0.141872	-363.921123	-363.912996	-363.912052	-363.953421	29.707
C         -0.02190        1.45280        0.01280
N         -0.00020        0.00800        0.04200
C         -0.01790       -0.75710       -1.11530
O         -0.05250       -0.32040       -2.24550
C          0.01460       -2.21870       -0.65470
C          0.05030       -2.10980        0.84390
C          0.04030       -0.81610        1.19130
C          0.06520       -0.20210        2.55110
H          0.87330        1.88190        0.47640
H         -0.05190        1.74430       -1.03870
H         -0.90540        1.85610        0.52000
H         -0.86610       -2.74230       -1.04530
H          0.88940       -2.71700       -1.08900
H          0.07940       -2.94120        1.53190
H          0.09590       -0.98480        3.31160
H          0.94080        0.44320        2.68800
H         -0.82140        0.41690        2.73210
