21
gdb 10758	3.38012	1.42632	1.32164	1.0815	74.44	-0.2276	0.0677	0.2953	1051.505	0.18651	-366.226904	-366.217401	-366.216457	-366.260705	35.591
C          0.34980        1.38970        0.04320
C         -0.04670       -0.09140        0.13300
C          0.41810       -0.67190        1.48030
C         -1.58200       -0.23890        0.01270
O         -2.30330        0.40130        1.05370
N          0.48400       -0.73290       -1.08630
C          1.85120       -1.22520       -1.14720
C          0.69800       -2.17030       -1.16720
H          1.43830        1.49860        0.07780
H         -0.00130        1.82500       -0.89740
H         -0.06360        1.96040        0.88110
H         -0.16270       -0.20550        2.27970
H          0.24660       -1.75070        1.54720
H          1.47730       -0.47600        1.67140
H         -1.88950        0.12050       -0.97890
H         -1.84540       -1.30040        0.07480
H         -2.27920        1.34860        0.89040
H          2.39540       -0.99190       -2.05880
H          2.45800       -1.21630       -0.24440
H          0.55340       -2.78530       -0.28200
H          0.37950       -2.63800       -2.09520
