22
gdb 5856	2.81331	1.48725	1.27589	1.4421	74.52	-0.2482	0.0703	0.3185	1105.794	0.196123	-387.340088	-387.32946	-387.328516	-387.375026	38.815
C          0.04710        1.37460       -0.10160
O          0.00350       -0.02560        0.04060
C         -1.30100       -0.59480        0.02430
C         -1.87830       -0.64790       -1.39320
C         -1.19510       -1.98140        0.72120
C         -0.17050       -2.89010        0.03350
C         -0.84050       -1.78140        2.19600
O         -2.49130       -2.59170        0.72110
H          1.08790        1.67970        0.03550
H         -0.28350        1.71130       -1.09490
H         -0.57260        1.87900        0.65620
H         -1.97300        0.01780        0.64770
H         -2.87060       -1.10670       -1.38360
H         -1.99400        0.35880       -1.80450
H         -1.22710       -1.21050       -2.06890
H          0.81300       -2.41610        0.01200
H         -0.09850       -3.84040        0.57020
H         -0.45810       -3.10670       -1.00200
H         -1.64110       -1.23190        2.70080
H         -0.72760       -2.74850        2.69350
H          0.08860       -1.21640        2.29090
H         -2.63100       -2.99380       -0.14180
