16
gdb 3227	5.20034	2.65124	2.2784	1.6274	63.68	-0.2167	0.0743	0.2909	649.6229	0.137185	-288.552886	-288.546743	-288.545799	-288.582309	24.58
C         -0.02910        1.51310        0.00910
C         -0.02290        0.01340        0.00200
C         -0.91700       -0.85830        0.84350
C          0.58020       -0.99220        0.95600
N          1.31840       -1.73050       -0.14610
C          0.36580       -2.25010       -1.14700
C          0.65470       -0.80100       -1.12690
H          0.95340        1.91610       -0.26280
H         -0.76090        1.91370       -0.70350
H         -0.28680        1.90040        0.99990
H         -1.34760       -0.33770        1.69470
H         -1.57310       -1.62130        0.43920
H          1.11270       -0.85870        1.88970
H          0.87030       -2.83380       -1.91240
H         -0.59380       -2.65690       -0.85040
H          1.24190       -0.31410       -1.90070
