20
gdb 11562	5.58441	0.92898	0.84406	2.6943	71.71	-0.2635	0.076	0.3395	1362.7873	0.175187	-386.114355	-386.104921	-386.103977	-386.148962	33.58
C          0.08540        1.56620        0.07500
C          0.02910        0.03510       -0.00500
C          0.69550       -0.47540       -1.28390
O         -0.00900        0.04950       -2.39940
C          0.65860       -0.64720        1.22320
C         -0.07820       -0.37890        2.51360
C          0.59380       -0.39040        3.81860
O          0.21490        0.84130        3.20280
H          1.12370        1.91040        0.15620
H         -0.34850        2.00610       -0.82550
H         -0.45190        1.94250        0.94840
H         -1.02540       -0.27160       -0.06180
H          1.75270       -0.16000       -1.29680
H          0.68170       -1.57780       -1.29420
H          0.46470       -0.19650       -3.19880
H          0.67710       -1.73490        1.06520
H          1.70040       -0.32330        1.34230
H         -1.14290       -0.62310        2.49740
H          0.03780       -0.65710        4.71650
H          1.66610       -0.57790        3.86610
