17
gdb 5723	4.63723	2.05482	1.47475	2.173	74.86	-0.1915	0.0525	0.244	847.0323	0.146537	-326.777356	-326.771076	-326.770132	-326.807616	25.051
C          0.02480        1.52290       -0.02460
C          1.52880        1.88990       -0.00060
N          2.11030        0.72690        0.64670
C          3.33050        0.41210        1.18170
C          3.27920       -0.91770        1.54880
C          1.98750       -1.42030        1.21070
C          1.29090       -0.37340        0.65020
C         -0.01580       -0.03210       -0.00190
H         -0.45480        1.91360        0.87750
H         -0.48930        1.95180       -0.88740
H          1.93520        2.01590       -1.01300
H          1.73400        2.80610        0.56100
H          4.11530        1.14580        1.27220
H          4.07750       -1.46810        2.02420
H          1.62310       -2.42350        1.37040
H         -0.88700       -0.41020        0.54050
H         -0.07510       -0.43750       -1.02100
