11
gdb 21823	6.28439	1.4899	1.20437	6.0318	57.4	-0.2562	-0.0498	0.2064	890.2732	0.071969	-430.710275	-430.703581	-430.702637	-430.741946	23.236
O         -0.29220       -0.01200        0.00210
C         -0.09950        1.17160        0.00850
N          1.14400        1.79430        0.00190
C          2.38630        1.20230       -0.01280
C          3.62760        1.78950       -0.01910
N          4.52940        0.76450       -0.03420
N          3.97540       -0.35380       -0.03740
O          2.51130       -0.10760       -0.02290
H         -0.90160        1.93380        0.02060
H          1.14410        2.80350        0.00890
H          3.91860        2.82540       -0.01430
