20
gdb 11466	3.44314	1.46023	1.3541	1.6958	71.09	-0.2406	0.0707	0.3114	1035.5301	0.17708	-386.149921	-386.141311	-386.140367	-386.183313	31.798
C         -0.58240        1.09460        0.00020
C         -0.03140       -0.32450       -0.15430
C          0.95730       -0.45860       -1.31310
C          1.46420       -1.90100       -1.54790
C          0.62960       -2.38830       -2.73490
O         -0.58980       -2.90670       -2.21630
C          0.43730       -1.08190       -3.50890
O          0.30770       -0.06250       -2.53620
H          0.22080        1.81230        0.20450
H         -1.08760        1.41130       -0.91590
H         -1.29860        1.15270        0.82560
H          0.48030       -0.63090        0.76760
H         -0.84520       -1.03800       -0.32280
H          1.80360        0.22410       -1.14620
H          2.52470       -1.90610       -1.81510
H          1.32540       -2.54690       -0.67880
H          1.15140       -3.14670       -3.33560
H         -1.20560       -3.01870       -2.94740
H          1.30580       -0.90280       -4.16570
H         -0.46300       -1.08420       -4.13570
