13
gdb 15476	2.89263	2.06902	1.45333	4.2128	58.57	-0.2701	-0.0575	0.2125	841.2332	0.09581	-398.622686	-398.615701	-398.614757	-398.654483	24.763
O          0.00660        0.06600       -0.35130
C         -0.00360        1.22600       -0.06900
C         -1.21670        2.11340        0.21570
O         -0.70690        3.36500        0.62100
C          0.55200        3.55300       -0.01370
C          1.24080        2.17230        0.03350
C          1.95150        1.93460        1.28280
N          2.50640        1.75020        2.28000
H         -1.82030        2.18370       -0.70460
H         -1.84200        1.69510        1.00880
H          0.42630        3.85990       -1.06330
H          1.08790        4.33290        0.52720
H          1.90790        1.98070       -0.81040
