20
gdb 17114	4.47687	1.44762	1.36991	1.2978	74.31	-0.2612	0.0795	0.3407	985.6934	0.179775	-348.989419	-348.982163	-348.981219	-349.020835	28.878
O         -0.14570        1.45060       -0.08920
C          0.01370        0.04440        0.05520
C         -1.36670       -0.58740       -0.02650
C         -2.08420       -0.42560       -1.41070
C         -2.37610       -1.90800       -1.71850
C         -2.86540       -2.43520       -0.33780
C         -1.39430       -2.13010        0.07200
C         -1.02000       -2.58520       -1.37150
H          0.72690        1.85420       -0.08100
H          0.66890       -0.35910       -0.73270
H          0.47700       -0.20320        1.02480
H         -1.96990       -0.14640        0.77490
H         -2.99380        0.17700       -1.34230
H         -1.43410        0.03990       -2.15760
H         -2.91000       -2.13220       -2.64280
H         -3.66500       -1.88790        0.17160
H         -3.08620       -3.50520       -0.34700
H         -0.93900       -2.58140        0.95530
H         -1.05260       -3.67190       -1.48160
H         -0.10950       -2.19310       -1.83400
