22
gdb 8956	3.64006	1.20499	0.96668	0.	75.76	-0.2484	0.0901	0.3385	1282.2059	0.196408	-387.327093	-387.31628	-387.315336	-387.36351	37.373
C         -0.01920        1.40210       -0.07140
O         -0.03710        0.00730        0.11750
C         -1.32290       -0.59250        0.02570
C         -1.80010       -0.70940       -1.42210
C         -1.20040       -1.96540        0.71010
C         -0.72320       -1.84850        2.15790
O         -2.48630       -2.56520        0.61830
C         -2.50420       -3.95990        0.80730
H          1.00200        1.73970        0.12380
H         -0.29100        1.69550       -1.09570
H         -0.70070        1.91530        0.62520
H         -2.04880        0.00530        0.60360
H         -2.75410       -1.23830       -1.45680
H         -1.93530        0.27490       -1.87910
H         -1.06630       -1.26500       -2.01550
H         -0.47450       -2.56320        0.13220
H         -1.45710       -1.29290        2.75130
H         -0.58800       -2.83280        2.61500
H          0.23080       -1.31960        2.19260
H         -3.52540       -4.29760        0.61200
H         -1.82260       -4.47320        0.11060
H         -2.23240       -4.25330        1.83150
