22
gdb 8106	2.84227	1.8297	1.39941	0.2487	82.62	-0.2379	0.0863	0.3241	1025.4775	0.199791	-313.052401	-313.043567	-313.042623	-313.084878	34.17
C         -0.25370        1.27910       -0.64400
C          0.14310       -0.18170       -0.55190
C          1.53000       -0.78420       -0.60830
C          2.60560       -0.00420        0.16250
C          3.18330        1.29520       -0.39160
C          1.67410       -0.00760        1.42170
C          0.66610       -0.89500        0.66520
C         -0.00840       -2.09020        1.27810
H         -0.14010        1.65740       -1.66620
H         -1.30580        1.40290       -0.36230
H          0.33370        1.92240        0.01360
H         -0.55170       -0.82100       -1.09770
H          1.75380       -1.55920       -1.33540
H          3.43890       -0.68730        0.36180
H          2.41300        2.03910       -0.60770
H          3.88880        1.74140        0.31890
H          3.72950        1.10730       -1.32310
H          2.12650       -0.51210        2.27940
H          1.30160        0.96490        1.76130
H         -0.77280       -1.78870        2.00580
H         -0.50460       -2.70020        0.51570
H          0.70910       -2.73110        1.80450
