15
gdb 1922	4.72346	2.93915	2.51958	1.2762	60.66	-0.2275	0.0119	0.2394	597.6453	0.126188	-308.480308	-308.474602	-308.473658	-308.50924	23.618
O         -0.08250        1.42460       -0.00830
C         -0.01600        0.03540        0.01280
C          0.32270       -0.80910        1.29830
C         -0.36990       -1.92030        0.43590
C         -1.33850       -0.78470       -0.05190
C          0.59700       -1.99600       -0.75590
C          0.83120       -0.71340       -1.03860
H          0.81450        1.77350        0.02730
H          1.37570       -0.95320        1.55240
H         -0.26250       -0.50400        2.17110
H         -0.73990       -2.84360        0.87570
H         -2.06630       -0.47780        0.70530
H         -1.80770       -0.90440       -1.03060
H          0.96920       -2.89520       -1.22620
H          1.43730       -0.25230       -1.80640
