13
gdb 7713	3.61716	2.0469	1.36771	3.5764	56.53	-0.2894	-0.0155	0.2739	837.397	0.096783	-435.79097	-435.784368	-435.783424	-435.822248	23.983
N         -0.13560        1.31950       -0.22710
C         -0.07610        0.09620        0.05510
C         -1.21620       -0.86450       -0.08540
C         -1.16340       -1.83540        1.08170
O          0.11440       -2.49350        1.10870
C          1.23750       -1.78810        0.90790
O          2.32130       -2.25560        1.05020
O          1.09890       -0.46880        0.53830
H          0.76280        1.77720       -0.06000
H         -2.15220       -0.30590       -0.11640
H         -1.11560       -1.42110       -1.02500
H         -1.32160       -1.32230        2.03760
H         -1.89720       -2.63670        0.98910
