17
gdb 3078	9.78597	0.98531	0.94741	2.7663	61.17	-0.2636	0.0781	0.3417	1200.1671	0.147127	-346.824942	-346.816785	-346.815841	-346.858128	28.091
O         -0.11770        1.39580        0.31410
C          0.00300        0.00880        0.03940
C         -1.39550       -0.59260        0.03910
C         -1.39830       -2.09280       -0.27820
C         -2.78860       -2.67890       -0.25020
C         -3.06340       -4.04190        0.21900
O         -3.35760       -2.91190        1.04230
H          0.76500        1.77630        0.33710
H          0.48340       -0.16350       -0.93870
H          0.62400       -0.49640        0.79770
H         -1.85500       -0.42440        1.01920
H         -2.00590       -0.05060       -0.69380
H         -0.96130       -2.26830       -1.27100
H         -0.77580       -2.63280        0.44580
H         -3.49190       -2.24080       -0.96210
H         -3.92870       -4.58510       -0.15890
H         -2.23870       -4.66670        0.56070
