18
gdb 18976	4.17553	2.22831	1.82348	1.33	70.91	-0.2368	0.0957	0.3325	777.1143	0.157477	-347.761861	-347.756027	-347.755083	-347.791441	24.64
C         -0.04640        1.61680       -0.00840
C          1.45810        1.24640       -0.00240
C          1.12710        0.16680        1.07620
C          2.09570       -1.00950        1.17650
C          2.05960       -1.78630       -0.14180
O          1.98780       -0.91210       -1.26030
C          1.10680        0.16120       -1.06460
C         -0.02590        0.06730        0.01240
H         -0.42500        2.10000        0.89560
H         -0.43720        2.09410       -0.91190
H          2.31440        1.92300       -0.00880
H          0.82830        0.56570        2.05070
H          3.10600       -0.63650        1.38620
H          1.82300       -1.67970        1.99960
H          2.94770       -2.40740       -0.28650
H          1.18100       -2.45030       -0.14460
H          0.81890        0.52650       -2.05420
H         -0.88890       -0.60070        0.02300
