16
gdb 4123	3.81425	1.66419	1.30462	0.9404	69.67	-0.2287	0.0058	0.2345	943.9272	0.129493	-379.835651	-379.827879	-379.826935	-379.867524	29.116
C          0.02160        1.53450        0.00900
C         -0.04140        0.04010       -0.07380
C         -0.85850       -0.82140        0.82630
N          0.59980       -0.92820        0.94430
C          1.01330       -1.82090       -0.20380
C          0.47800       -0.79870       -1.18490
N          0.62620       -0.52200       -2.41180
O          1.29870       -1.56470       -3.07910
H          0.98850        1.90440       -0.34440
H         -0.75940        1.98410       -0.61330
H         -0.12610        1.86840        1.03960
H         -1.32260       -0.32610        1.67450
H         -1.42330       -1.66150        0.42630
H          2.10030       -1.92170       -0.25590
H          0.55590       -2.81490       -0.18530
H          1.36570       -1.22090       -3.97630
