15
gdb 20803	3.26035	1.80732	1.25815	4.9052	64.73	-0.2226	-0.0141	0.2085	954.2263	0.118187	-395.970131	-395.962097	-395.961153	-396.003282	28.891
C          0.06340        1.61450       -0.14600
C         -0.02380        0.09080        0.04430
C         -1.42430       -0.42820        0.11040
C         -2.16910       -0.89840        1.17170
N         -1.85340       -1.10740        2.48690
O         -3.37430       -1.24610        0.76010
N         -3.38260       -0.96500       -0.70550
N         -2.25280       -0.51000       -0.97660
H          1.10580        1.94140       -0.21240
H         -0.44850        1.91410       -1.06480
H         -0.40930        2.14570        0.68660
H          0.50270       -0.40730       -0.77800
H          0.50680       -0.20280        0.95870
H         -1.10560       -0.53890        2.85270
H         -2.64320       -1.18760        3.10970
