19
gdb 18276	4.25736	1.48144	1.24738	2.1606	70.35	-0.2272	0.0756	0.3028	1002.5825	0.167469	-365.038412	-365.030849	-365.029905	-365.07025	29.103
O         -0.05350        1.42490       -0.04020
C          0.03200        0.00710        0.00700
C         -1.38580       -0.54670       -0.00520
C         -2.18390       -0.23270       -1.29070
C         -3.17510       -1.41330       -1.40120
N         -2.58380       -2.58040       -0.71320
C         -1.20480       -2.86720       -1.13040
C         -1.46340       -2.06580        0.09690
H          0.83960        1.78110       -0.03890
H          0.58950       -0.38860       -0.85740
H          0.55590       -0.32860        0.91670
H         -1.91070       -0.12150        0.85990
H         -2.68610        0.73480       -1.24190
H         -1.51130       -0.19330       -2.15380
H         -4.11250       -1.18020       -0.88420
H         -3.42510       -1.67150       -2.43520
H         -0.91510       -3.91030       -1.04200
H         -0.80570       -2.36650       -2.00930
H         -1.32640       -2.52230        1.07360
