14
gdb 11697	4.24969	1.55862	1.31823	3.2371	64.51	-0.2576	-0.0494	0.2082	903.7291	0.106066	-382.542272	-382.535288	-382.534344	-382.573721	25.824
O         -0.11230        0.00390        0.00470
C         -0.00150        1.20340       -0.07250
C          1.27620        1.92370        0.02190
C          1.37700        3.37900        0.35880
C          1.77090        2.98640       -1.04040
C          3.10060        2.27450       -1.03090
O          4.06530        2.35320       -1.73340
C          2.66320        1.27130        0.06510
H         -0.88570        1.86120       -0.23700
H          0.44110        3.92720        0.41900
H          2.12750        3.69580        1.07730
H          1.25050        3.37820       -1.90610
H          3.19050        1.29740        1.02240
H          2.66580        0.24950       -0.32290
