14
gdb 5727	4.95547	2.2207	1.57017	4.9028	62.18	-0.2027	0.0402	0.2429	763.4547	0.111194	-378.751479	-378.745556	-378.744612	-378.781634	22.355
C          0.05950        1.35770       -0.17570
C          1.48740        1.86370        0.19080
N          2.09510        0.59890        0.54030
C          3.29770        0.05670        0.97840
C          2.97300       -1.21640        1.36460
N          1.61190       -1.47950        1.21370
C          1.15730       -0.36100        0.73650
O         -0.09280        0.06370        0.44680
H         -0.73470        2.00850        0.19200
H         -0.04300        1.23660       -1.25950
H          1.97470        2.35140       -0.65760
H          1.48310        2.55760        1.04030
H          4.22960        0.59330        0.93440
H          3.64010       -1.97950        1.73550
