21
gdb 12107	4.03362	1.2818	1.19159	0.9362	79.2	-0.2305	0.0836	0.3141	1125.0218	0.188284	-329.083955	-329.075385	-329.074441	-329.117045	32.577
C          0.06560        1.57350        0.14990
C         -0.03290        0.06620        0.01370
C         -1.40860       -0.44900       -0.36920
N         -1.86860        0.11800       -1.63430
C         -1.59110       -0.64860       -2.84240
C         -2.97250       -0.56790       -2.29140
C          1.17450       -0.68820       -0.49370
C          0.77490       -0.78880        0.95960
H          1.08230        1.88040        0.41460
H         -0.21360        2.06530       -0.78590
H         -0.60900        1.94110        0.93270
H         -1.39730       -1.55470       -0.39510
H         -2.13490       -0.15460        0.40040
H         -1.30820       -0.07260       -3.71900
H         -1.07250       -1.60040       -2.73730
H         -3.36990       -1.46600       -1.81960
H         -3.72010        0.06960       -2.75530
H          1.01770       -1.55780       -1.12310
H          2.06370       -0.11900       -0.74300
H          1.39080       -0.28500        1.69720
H          0.34740       -1.72450        1.30630
