13
gdb 20659	5.95584	1.6128	1.27921	3.799	63.17	-0.2359	-0.071	0.165	894.3696	0.096349	-394.807723	-394.80089	-394.799946	-394.839267	24.711
C         -0.06170        1.48950        0.00140
C         -0.00310       -0.01150       -0.01390
C          0.12630       -0.75720       -1.19340
N          0.17540       -2.07810       -1.17510
C          0.09190       -2.62020        0.04660
O          0.13500       -3.95340        0.13560
N         -0.03220       -1.97080        1.20350
N         -0.07920       -0.64640        1.15860
H          0.84620        1.92890       -0.42610
H         -0.91040        1.86200       -0.58240
H         -0.16630        1.83590        1.03070
H          0.19070       -0.27100       -2.16510
H          0.22500       -4.28850       -0.76690
