16
gdb 9114	3.81525	1.08111	0.8794	3.2555	70.38	-0.2664	0.0022	0.2686	1302.2144	0.12792	-379.926646	-379.917413	-379.916469	-379.961492	31.151
C          0.21620        1.12630        0.50360
N         -0.14820        0.04890       -0.39330
C         -1.05860       -0.73050       -0.02850
O         -1.44300       -1.75200       -0.84250
C         -2.47830       -2.59770       -0.35350
C         -2.97780       -3.43490       -1.52830
C         -1.98700       -3.45180        0.74850
N         -1.61100       -4.11470        1.61670
H          1.27860        1.04340        0.75710
H          0.08400        2.08610       -0.00770
H         -0.36400        1.14650        1.43990
H         -1.60920       -0.67250        0.92240
H         -3.30150       -1.98880        0.04600
H         -3.35250       -2.76750       -2.30710
H         -2.16120       -4.03390       -1.93620
H         -3.78110       -4.10050       -1.20430
