15
gdb 1609	3.70769	2.11191	1.59957	1.1384	57.91	-0.2489	-0.0945	0.1544	804.408	0.122012	-345.680996	-345.672767	-345.671823	-345.713823	28.006
C          0.26140        1.27680        0.34690
C         -0.00330       -0.16580       -0.14400
C         -1.49020       -0.52250       -0.10440
C          0.56420       -0.31600       -1.54110
O         -0.08720       -0.33820       -2.56050
C          2.09070       -0.44850       -1.68270
O          2.85120       -0.51670       -0.75320
H          1.32800        1.51390        0.34330
H         -0.26250        2.00300       -0.28320
H         -0.10690        1.38870        1.37060
H          0.57250       -0.83820        0.50380
H         -2.06240        0.12760       -0.77190
H         -1.66190       -1.55450       -0.42310
H         -1.88060       -0.40720        0.91090
H          2.41440       -0.49570       -2.74440
