14
gdb 653	7.03621	3.45239	3.19279	1.4563	53.19	-0.2526	0.0751	0.3278	484.8841	0.121175	-270.375081	-270.369961	-270.369017	-270.403214	20.256
O          0.22770        1.38890       -0.17500
C          0.04470        0.01050       -0.03170
C          0.00260       -0.67900        1.37070
C         -1.43930       -0.11020        1.53900
C         -1.37730       -0.63090        0.07060
C         -0.65370       -1.88390        0.63940
H         -0.34190        1.85250        0.44710
H          0.71460       -0.45450       -0.76000
H          0.79370       -0.71230        2.12120
H         -2.09880       -0.65620        2.21880
H         -1.55560        0.96650        1.70230
H         -2.17390       -0.60870       -0.67460
H         -0.02200       -2.44900       -0.05200
H         -1.26140       -2.54580        1.25990
