17
gdb 7413	3.27546	1.79023	1.17456	3.7446	67.46	-0.2402	0.0062	0.2464	999.1002	0.142117	-397.234716	-397.225907	-397.224963	-397.268451	31.845
C         -1.17380        1.06220        0.22100
N         -0.26540       -0.07850        0.08050
C          0.56340       -0.43300        1.13950
C          0.44350        0.42400        2.38440
N          1.37770       -1.42470        1.06340
C         -0.33240       -0.73930       -1.19900
N          0.49010       -1.79270       -1.36090
O         -1.10170       -0.33580       -2.05380
H         -1.89270        0.90610        1.03080
H         -0.62660        1.99110        0.40650
H         -1.71250        1.14970       -0.71900
H         -0.56900        0.39890        2.79740
H          1.13360        0.05610        3.14510
H          0.68430        1.47120        2.17940
H          1.89800       -1.53260        1.92770
H          1.10780       -2.07120       -0.59930
H          0.44380       -2.25250       -2.25310
