18
gdb 8088	3.58949	2.18245	1.76753	1.2981	66.99	-0.2317	0.0925	0.3242	809.0764	0.154975	-384.928284	-384.921369	-384.920425	-384.958864	27.629
C         -0.06700        1.53670        0.02640
C          0.06480        0.03470       -0.02920
C          0.73950       -0.67470       -1.22850
C         -0.39070       -1.69030       -0.97590
C          0.00150       -2.65150        0.13980
O          0.85060       -1.99220        1.07460
C          0.54470       -0.61500        1.27320
O         -1.19510       -0.64150       -0.36400
H          0.91330        2.00620        0.15780
H         -0.51320        1.90980       -0.89930
H         -0.70770        1.84080        0.86110
H          0.59680       -0.12090       -2.15760
H          1.77270       -1.00790       -1.12010
H         -0.89770       -2.17840       -1.81250
H         -0.91500       -3.02050        0.62520
H          0.57040       -3.50810       -0.23900
H          1.46630       -0.15180        1.64290
H         -0.24460       -0.48900        2.03060
