20
gdb 16558	2.96266	2.48699	1.99058	0.2318	78.04	-0.232	0.0297	0.2617	802.258	0.181859	-311.901271	-311.894915	-311.89397	-311.931364	26.818
C         -0.01690        1.55280        0.00330
C          1.47370        2.00950       -0.06470
C          2.27340        0.69520        0.13120
C          1.38490       -0.31890       -0.61280
C          0.01610       -0.00310        0.02180
C         -0.00880       -0.56150        1.45970
C          1.26980       -0.25050        2.19920
C          2.31420        0.32270        1.60020
H         -0.52610        1.94950        0.88650
H         -0.56960        1.91500       -0.86870
H          1.70270        2.44440       -1.04410
H          1.71720        2.76110        0.69060
H          3.28570        0.76510       -0.27620
H          1.37660       -0.11160       -1.68910
H          1.70150       -1.35580       -0.46530
H         -0.81920       -0.42590       -0.54390
H         -0.86680       -0.14510        2.00610
H         -0.17310       -1.64960        1.44410
H          1.31430       -0.51350        3.25370
H          3.21300        0.55960        2.16410
