16
gdb 18771	4.02097	2.4115	2.09812	1.7497	66.43	-0.2401	0.085	0.3251	714.3088	0.131398	-346.52198	-346.516042	-346.515098	-346.551656	24.459
C         -0.01760        1.44390        0.01750
C          0.01400       -0.05280       -0.02600
C         -0.94600       -0.96840        0.73880
C          0.54920       -1.06760        0.96330
C          0.58440       -2.10200       -0.20200
C         -0.97790       -2.15320       -0.26360
O         -1.00840       -1.59940       -1.59930
C          0.25550       -0.99160       -1.24850
H          0.94180        1.87560       -0.28950
H         -0.79250        1.83970       -0.64910
H         -0.23280        1.80550        1.02860
H         -1.72070       -0.58620        1.38990
H          1.14090       -0.94780        1.85920
H          1.25460       -2.94330       -0.35740
H         -1.62740       -3.01480       -0.11700
H          0.85580       -0.67140       -2.09960
