10
gdb 8611	2.16459	2.13311	1.52373	3.4886	56.46	-0.3279	-0.0634	0.2645	844.7648	0.059576	-372.492707	-372.484819	-372.483875	-372.524976	26.862
N         -0.04490        1.47790        0.07190
C          0.00140        0.01790        0.00540
C          0.79780       -0.48300        1.15130
N          1.43950       -0.85580        2.03410
C         -1.38210       -0.50480        0.11000
N         -2.46590       -0.89490        0.16840
C          0.60760       -0.50720       -1.25250
N          1.08800       -0.83160       -2.25120
H          0.89690        1.85390        0.00520
H         -0.59000        1.83920       -0.70600
