9
gdb 23830	4.19693	2.03626	1.37105	2.3315	47.63	-0.2859	-0.1149	0.171	758.766	0.049502	-470.802514	-470.796833	-470.795888	-470.832762	20.214
F          0.04560        0.10880        0.00280
C         -0.04410        1.41190        0.01120
N         -1.21210        1.94080        0.02990
C         -1.25670        3.32490        0.03780
O         -2.23750        4.01590        0.05450
N          0.03990        3.91720        0.02310
N          1.20040        3.28940        0.00390
N          1.20080        2.01020       -0.00280
H          0.10260        4.92830        0.02740
