11
gdb 23673	4.27133	1.84926	1.29053	2.0283	54.47	-0.2746	-0.034	0.2406	822.4183	0.074169	-438.75686	-438.751104	-438.75016	-438.786867	21.764
O          0.09520        1.33320        0.09010
C          0.07140       -0.00440        0.06420
N          0.07980       -0.60220       -1.12900
C          0.05550       -1.93300       -1.11300
N          0.02390       -2.72350       -0.04160
C          0.01680       -2.08650        1.11630
F         -0.01440       -2.84490        2.19940
C          0.03930       -0.71180        1.26560
H          0.11530        1.62390       -0.83340
H          0.06200       -2.42820       -2.08030
H          0.03260       -0.22490        2.23020
