20
gdb 11392	4.97375	1.15641	1.02477	1.2975	77.1	-0.2338	0.0286	0.2624	1195.307	0.177324	-349.016199	-349.00766	-349.006716	-349.049354	31.899
C         -0.03010        1.59440       -0.00040
C          0.02960        0.06310        0.02850
C          0.79010       -0.56140       -1.17350
C          1.55130       -1.79070       -0.61480
C          2.92650       -1.98760       -1.24700
O          3.50010       -3.16390       -0.69380
C          1.58980       -1.50910        0.87120
C          0.77420       -0.51460        1.21390
H          0.97810        2.02350       -0.00110
H         -0.54970        1.95230       -0.89590
H         -0.56200        1.98860        0.87230
H         -1.00630       -0.31060        0.04410
H          0.13030       -0.81330       -2.00810
H          1.51720        0.17110       -1.54890
H          0.98720       -2.71730       -0.79780
H          2.82170       -2.07220       -2.34120
H          3.55120       -1.10310       -1.04110
H          4.38840       -3.26240       -1.04810
H          2.20150       -2.09570        1.54630
H          0.61220       -0.15600        2.22580
