16
gdb 11129	6.63987	1.05134	0.96813	1.3214	61.36	-0.2506	-0.0374	0.2132	1159.6378	0.128836	-420.85711	-420.848881	-420.847937	-420.891016	28.57
O          0.44260        1.20030       -0.01660
C          0.24250       -0.19250        0.09960
C         -1.15800       -0.57340       -0.34360
C         -1.70480       -1.94450        0.10580
C         -2.70280       -1.11680        0.93430
O         -2.14020        0.13450        0.47690
C         -4.16540       -1.21280        0.54360
O         -4.69930       -2.22350        0.16880
H         -0.28070        1.61540        0.46930
H          0.98590       -0.68260       -0.53950
H          0.40380       -0.54200        1.13330
H         -1.30180       -0.32320       -1.40110
H         -2.17010       -2.55920       -0.66450
H         -1.00660       -2.54990        0.68580
H         -2.62850       -1.22310        2.02710
H         -4.70990       -0.24560        0.62680
