15
gdb 20063	4.51349	1.67747	1.53322	1.7658	60.75	-0.2515	0.0171	0.2686	845.738	0.120404	-399.782477	-399.775666	-399.774722	-399.814322	24.456
C          0.30390        1.45850        0.21390
O          1.18980        0.37740       -0.10660
C         -0.19240        0.08530        0.08630
C         -0.52950       -0.78380        1.28450
C          0.12760       -2.19390        1.19210
O          0.98140       -2.26000        2.36000
C          0.79650       -1.08950        3.00490
N         -0.00530       -0.22360        2.54390
H          0.42960        1.87540        1.20870
H          0.12940        2.16870       -0.59290
H         -0.72160       -0.19170       -0.82820
H         -1.62180       -0.85460        1.35120
H         -0.58960       -3.01620        1.24930
H          0.75640       -2.31440        0.30690
H          1.37200       -0.98740        3.91840
