16
gdb 20906	4.96798	1.40981	1.19659	1.1817	68.51	-0.2095	0.0105	0.22	1021.7823	0.132686	-376.112756	-376.104957	-376.104012	-376.14551	28.202
C         -0.09860        1.51430        0.13250
C          0.06230       -0.00450        0.05700
N          0.76240       -0.54820        1.20780
N          2.04060       -0.88050        1.17120
C          2.31780       -1.24210        2.42640
C          1.14700       -1.10430        3.19680
N          0.95910       -1.30220        4.56080
N          0.16930       -0.66150        2.40400
H          0.87790        2.00550        0.16140
H         -0.64340        1.87640       -0.74460
H         -0.65690        1.79520        1.02910
H         -0.91420       -0.49450        0.00490
H          0.64760       -0.29900       -0.81580
H          3.30240       -1.57760        2.70970
H          1.47300       -2.09020        4.92970
H         -0.02070       -1.36920        4.80300
