14
gdb 39	23.44662	3.60588	3.38683	0.	45.71	-0.317	0.0937	0.4107	426.2996	0.131708	-158.340943	-158.33517	-158.334226	-158.36894	19.668
C         -0.03010        1.55800        0.02980
C          0.00710        0.02830       -0.00710
C          0.71320       -0.52990       -1.24770
C          0.75040       -2.05960       -1.28460
H          0.98200        1.97850        0.02800
H         -0.55580        1.96210       -0.84270
H         -0.54080        1.92690        0.92490
H          0.50930       -0.34910        0.89360
H         -1.01730       -0.36540        0.03210
H          0.21100       -0.15250       -2.14840
H          1.73760       -0.13610       -1.28690
H          1.27620       -2.46370       -0.41210
H         -0.26170       -2.48000       -1.28270
H          1.26110       -2.42850       -2.17970
