13
gdb 1068	7.74692	2.01171	1.62084	1.601	55.52	-0.1986	0.0135	0.2122	731.0147	0.103561	-340.656628	-340.650307	-340.649363	-340.686868	22.711
C          0.03180        1.40490       -0.07720
N         -0.16220       -0.01800        0.11910
C          0.57400       -0.64780        1.09920
C          1.25140       -0.14270        2.16900
O          1.76550       -1.21700        2.87160
C          1.37660       -2.29050        2.16990
N          0.67220       -2.03470        1.11450
H          1.08000        1.68070       -0.27620
H         -0.58480        1.74100       -0.91340
H         -0.29510        1.94940        0.81610
H         -0.22470       -0.56950       -0.72400
H          1.45120        0.83430        2.56690
H          1.68180       -3.25620        2.54170
