13
gdb 710	7.69936	4.03933	3.91927	1.5349	52.	-0.2206	0.0711	0.2917	427.1373	0.109407	-249.257629	-249.253018	-249.252074	-249.285119	18.623
C         -0.02280        1.49390       -0.07480
C          1.32270        0.82090       -0.01640
C          0.05850       -0.00260        0.03860
N          0.42680       -0.80190       -1.20200
C          0.61570        0.09770       -2.35920
C          1.65790        0.05710       -1.31290
H         -0.31040        1.96530        0.86060
H         -0.38630        2.02450       -0.94740
H          2.05170        1.01910        0.75740
H         -0.39320       -0.55760        0.85050
H          0.81790       -0.46230       -3.26820
H         -0.02370        0.95940       -2.51080
H          2.62920       -0.39890       -1.47700
