21
gdb 2549	2.29738	2.13674	1.22052	1.3442	71.01	-0.2612	0.0795	0.3407	1050.7496	0.193227	-312.12476	-312.115218	-312.114274	-312.159031	33.705
C         -0.18660        1.45520       -0.09990
C         -0.07570       -0.06720        0.02750
C          0.80740       -0.54890        1.19550
C          0.12870       -0.34570        2.56380
C          1.06350       -0.45230        3.77470
C          1.20200       -2.01360        0.98920
O          1.99620       -2.10580       -0.18730
H          0.80010        1.90890       -0.24580
H         -0.80720        1.73130       -0.95840
H         -0.63450        1.91720        0.78620
H         -1.07880       -0.50380        0.13740
H          0.34000       -0.47390       -0.89930
H          1.74080        0.03290        1.17860
H         -0.34450        0.64220        2.57900
H         -0.69230       -1.06970        2.66550
H          1.51610       -1.44460        3.86550
H          1.87880        0.27650        3.70610
H          0.52110       -0.25610        4.70510
H          1.76110       -2.38560        1.86030
H          0.28830       -2.62590        0.90010
H          2.18760       -3.03390       -0.34880
