18
gdb 18385	2.80679	2.47035	1.57226	1.6449	72.52	-0.2386	0.0281	0.2667	855.7426	0.15604	-347.79597	-347.789027	-347.788083	-347.827135	27.126
C         -0.02680        1.34520        0.40320
C          1.16320        2.25460        0.07260
C          2.51590        1.69400        0.45880
O          2.54930        0.64260        1.43590
C          3.00950        0.35680        0.10960
C          2.30990       -0.69330       -0.72160
C          0.81030       -0.74180       -0.84070
C         -0.14400        0.07210       -0.39160
H          0.01160        1.09960        1.47250
H         -0.94450        1.92630        0.25860
H          1.17020        2.49850       -0.99750
H          1.02700        3.20480        0.60370
H          3.28110        2.45670        0.62130
H          4.09660        0.25110        0.05460
H          2.74110       -0.63270       -1.73370
H          2.64300       -1.67410       -0.34850
H          0.47730       -1.62120       -1.39100
H         -1.16820       -0.22880       -0.60550
