14
gdb 16826	3.67066	2.10022	1.53675	4.3079	57.31	-0.2652	-0.0144	0.2508	808.6984	0.107324	-419.697521	-419.690865	-419.689921	-419.728355	24.91
C          0.16130        1.51420       -0.05940
C         -0.02430        0.01230        0.07700
O          0.50900       -0.64710       -1.09860
C          1.29870       -1.71290       -0.78810
O          1.69790       -2.49180       -1.60210
C          1.53460       -1.70690        0.70280
O          2.12810       -0.46470        1.12660
C          0.71680       -0.62020        1.24390
H          1.22580        1.75820       -0.06780
H         -0.29370        1.86900       -0.98700
H         -0.31520        2.03010        0.78000
H         -1.08890       -0.24670        0.13640
H          1.84370       -2.60700        1.22050
H          0.30330       -0.61170        2.24760
