16
gdb 19755	3.85246	2.27957	2.20744	1.8098	61.4	-0.2388	0.0909	0.3297	713.7225	0.132725	-383.728302	-383.722415	-383.721471	-383.758013	24.126
C         -0.07400        1.55470        0.00940
C          0.02310        0.03310       -0.01420
C          0.95060       -0.55430       -1.07550
C          2.31030       -0.61960       -0.38480
O          2.15530       -0.13280        0.93640
C          0.82520       -0.59100        1.15740
O          0.86280       -1.97570        0.82940
C          1.44700       -1.85390       -0.45590
H          0.91770        2.00410        0.10290
H         -0.53680        1.93150       -0.90800
H         -0.68520        1.89630        0.85190
H         -0.96770       -0.42980       -0.05440
H          0.82710       -0.40560       -2.13900
H          3.28290       -0.46550       -0.82700
H          0.51690       -0.43290        2.18730
H          1.66290       -2.78430       -0.95910
