14
gdb 2161	3.57382	3.26867	1.96367	1.7241	54.25	-0.2689	0.0189	0.2878	662.3345	0.114285	-361.729115	-361.722539	-361.721595	-361.759768	23.502
C          0.17490        1.47410       -0.12560
C         -0.10910       -0.01210        0.08720
O          0.34750       -0.82860       -0.99470
C          1.57570       -1.37830       -0.60710
O          1.57610       -1.44560        0.81910
C          0.62550       -0.58550        1.28600
N          0.39550       -0.30800        2.49290
H          1.24730        1.66150       -0.23710
H         -0.33630        1.82850       -1.02420
H         -0.18390        2.03910        0.73860
H         -1.18460       -0.17870        0.19220
H          1.66810       -2.38950       -1.01340
H          2.42900       -0.75970       -0.92790
H          1.03500       -0.80490        3.11430
