17
gdb 13705	4.81548	0.90942	0.82326	1.1138	75.57	-0.2284	0.0198	0.2482	1389.718	0.14056	-363.7906	-363.781507	-363.780563	-363.825674	31.569
C         -0.31650        1.42940        0.03730
N          0.00090        0.00750        0.08530
C          1.36660       -0.37390       -0.21350
C          0.84710       -0.48110        1.19300
C          1.34910        0.39670        2.21320
C          1.74930        1.12070        3.09190
C          2.19960        1.97600        4.18830
O          1.13860        2.59600        4.90280
H          0.50540        2.08160        0.36670
H         -0.57880        1.68710       -0.99330
H         -1.18490        1.62530        0.67310
H          1.49800       -1.27570       -0.80570
H          2.09390        0.41460       -0.40030
H          0.54940       -1.46570        1.54690
H          2.84580        1.38810        4.86020
H          2.81420        2.79620        3.80070
H          0.51600        1.90430        5.14980
