18
gdb 4944	4.95469	1.29085	1.11755	1.7676	76.01	-0.1712	0.0529	0.2241	1105.8239	0.155037	-344.015602	-344.007213	-344.006269	-344.04884	31.074
C         -0.01250        1.54360       -0.05450
C         -0.02930        0.01450        0.04160
N         -1.36510       -0.55050        0.04110
C         -2.10260       -0.86070        1.14850
C         -3.35840       -1.25980        0.74590
C         -3.38810       -1.18720       -0.67640
N         -4.50940       -1.45340       -1.48960
C         -2.14690       -0.74370       -1.08440
H          1.01800        1.91370       -0.05690
H         -0.50140        1.88120       -0.97270
H         -0.53900        1.99060        0.79360
H          0.52880       -0.42180       -0.79460
H          0.46870       -0.31250        0.95990
H         -1.67360       -0.77610        2.13490
H         -4.16330       -1.58000        1.39050
H         -5.06800       -2.21440       -1.12360
H         -4.24750       -1.67980       -2.44090
H         -1.75360       -0.55300       -2.07050
