15
gdb 15150	13.23768	0.62007	0.61907	1.9956	92.65	-0.2225	-0.0137	0.2087	1794.087	0.118017	-325.456672	-325.447921	-325.446977	-325.491878	29.587
C         -0.01190        1.47740       -0.00620
C          0.00160        0.02560       -0.00400
C          0.01460       -1.18520       -0.00180
C          0.02860       -2.54360        0.00080
C          0.03850       -3.75640        0.01240
C          0.04400       -5.18710       -0.00800
C         -0.40360       -5.95250        1.19810
N         -1.23890       -5.93900       -0.00390
H          0.99650        1.88180        0.13770
H         -0.39710        1.87050       -0.95380
H         -0.64450        1.86780        0.79910
H          0.79860       -5.64100       -0.64580
H          0.06980       -6.90500        1.41840
H         -0.71340       -5.37710        2.06530
H         -2.00270       -5.27760        0.11670
