16
gdb 7331	4.30238	1.22473	0.96482	4.0719	63.45	-0.2626	-0.0295	0.2331	1175.4213	0.129749	-417.105655	-417.096702	-417.095758	-417.139792	31.302
C         -0.08890        1.15930        0.96400
C         -0.05460       -0.03790        0.03440
O         -1.25160       -0.80580        0.26250
C         -1.39770       -1.91920       -0.48080
N         -0.55620       -2.30470       -1.34140
C         -2.69140       -2.67310       -0.17670
N         -3.47010       -2.11190        0.77740
O         -2.95300       -3.69760       -0.77630
H          0.80860        1.76700        0.81640
H         -0.96330        1.78590        0.76520
H         -0.12000        0.84320        2.01080
H         -0.02350        0.25580       -1.01980
H          0.81270       -0.68060        0.21700
H         -0.91290       -3.16950       -1.75470
H         -3.18860       -1.25790        1.22600
H         -4.33920       -2.55620        1.02140
