11
gdb 4282	4.21417	2.04765	1.37836	7.179	54.77	-0.2563	-0.0414	0.2149	797.0906	0.073553	-430.777401	-430.770803	-430.769858	-430.808529	23.628
N          0.05670        1.33130        0.09010
C         -0.04360       -0.01090        0.02970
N         -1.16310       -0.63480        0.01200
C         -1.15100       -2.03370       -0.00940
O         -2.15830       -2.68840       -0.01680
N          0.13110       -2.69150       -0.02770
C          1.16220       -1.96810       -0.01600
O          1.19350       -0.59620        0.01530
H          0.94410        1.77500       -0.06990
H         -0.79190        1.86070       -0.01550
H          2.17460       -2.36250       -0.02950
