15
gdb 20762	5.24922	1.29745	1.06408	2.1938	64.06	-0.2531	-0.0069	0.2462	1075.3788	0.118444	-399.797585	-399.789736	-399.788791	-399.830295	27.799
C         -0.14270        1.46260        0.02380
C         -0.01840       -0.02740        0.02790
N          0.35540       -0.65860       -1.06050
O          0.36790       -2.01680       -0.72630
C          0.00720       -2.15450        0.55970
C         -0.04000       -3.54480        1.11690
O         -0.82760       -3.62080        2.28780
C         -0.25790       -0.93730        1.10130
H          0.52260        1.91210        0.76810
H          0.11520        1.85790       -0.96030
H         -1.16430        1.77050        0.26930
H         -0.37830       -4.23590        0.33030
H          0.96640       -3.86630        1.40930
H         -1.72870       -3.37550        2.05170
H         -0.56070       -0.71920        2.11150
