16
gdb 16525	3.63767	2.38122	1.84562	0.7694	62.55	-0.2175	0.0687	0.2863	745.8248	0.131668	-383.697878	-383.691577	-383.690633	-383.727858	25.78
O         -0.05090        1.34230       -0.01710
C          0.02920       -0.04740       -0.04750
C          1.06200       -0.74320       -0.93870
C          0.40340       -2.10890       -1.28320
C         -0.71500       -2.22040       -0.24980
O         -0.09730       -2.18870        1.08700
C         -0.44170       -0.80810        1.18520
C         -1.28430       -0.79970       -0.05510
H          0.67910        1.67340        0.51770
H          1.24240       -0.13290       -1.82790
H          2.01880       -0.87770       -0.42430
H         -0.02380       -2.10130       -2.29250
H          1.09860       -2.94970       -1.21420
H         -1.39730       -3.06600       -0.35050
H         -0.57890       -0.36710        2.16660
H         -2.26170       -0.39810       -0.28140
