18
gdb 617	6.69746	2.14548	1.86009	0.117	64.01	-0.263	0.094	0.357	743.8195	0.165775	-235.694798	-235.687424	-235.686479	-235.72575	26.871
C          0.22330        1.54640        0.11090
C         -0.18740        0.08560       -0.11080
C          0.53120       -0.54490       -1.28710
C          1.90260       -1.16190       -1.12520
C          0.71510       -2.03750       -1.45190
C          0.19130       -3.05110       -0.45670
H          1.29730        1.62580        0.30890
H          0.00520        2.15610       -0.77300
H         -0.31090        1.98680        0.95890
H          0.01240       -0.48680        0.80190
H         -1.27260        0.03290       -0.27160
H          0.37730       -0.00310       -2.21860
H          2.65780       -0.98720       -1.88400
H          2.29930       -1.22610       -0.11540
H          0.66870       -2.38390       -2.48180
H          0.29260       -2.70280        0.57490
H         -0.86800       -3.27350       -0.62930
H          0.74440       -3.99370       -0.53730
