12
gdb 12312	3.0736	2.46244	1.46665	5.8405	51.62	-0.2799	-0.0689	0.211	786.6615	0.084514	-455.663971	-455.657446	-455.656502	-455.695114	23.323
O         -0.06410        0.19130        0.69510
C         -0.04650        1.23050        0.11040
O         -1.17860        1.77280       -0.39330
C         -1.06620        3.02170       -1.09030
C         -0.10700        3.93030       -0.36200
O          1.19980        3.33880       -0.33620
C          1.28280        2.00880       -0.10450
O          2.33640        1.45180       -0.06210
H         -0.72820        2.84270       -2.11800
H         -2.07260        3.44470       -1.11820
H          0.00380        4.88730       -0.87610
H         -0.44930        4.11590        0.66320
