16
gdb 12132	3.84749	1.71849	1.69578	2.0653	64.14	-0.2107	0.0785	0.2892	837.533	0.128902	-383.652291	-383.645038	-383.644094	-383.683063	29.318
O         -0.09520        1.39710        0.02910
C          0.01510        0.01940        0.04630
C         -0.29580       -0.84310       -1.14720
C         -1.11530       -0.97120        0.12560
C         -0.36920       -1.70150        1.28940
O         -1.04130       -2.09130        2.43230
C          1.01180       -2.18960        0.94300
C          0.76380       -0.71410        1.20630
H          0.67210        1.75390       -0.43350
H         -0.81810       -0.29830       -1.92890
H          0.35050       -1.63090       -1.51950
H         -2.18060       -0.78370        0.15510
H         -1.38630       -2.98050        2.28920
H          1.49810       -2.68860        1.77690
H          1.29810       -2.57920       -0.02820
H          1.25230       -0.17330        2.00610
