18
gdb 9397	5.58237	0.77586	0.70654	2.6366	70.75	-0.2646	0.0325	0.297	1545.1008	0.150644	-384.894075	-384.884171	-384.883227	-384.929352	34.688
O         -0.05090        1.46220       -0.03840
C          0.03820        0.04590       -0.00870
C         -1.37870       -0.51170        0.00160
C         -1.40970       -2.04060        0.04300
C         -2.84470       -2.60210       -0.00500
O         -3.55170       -2.17230       -1.16630
C         -2.84460       -4.06370        0.11190
C         -2.81730       -5.26460        0.16330
H          0.84160        1.81980       -0.04390
H          0.58250       -0.33830       -0.88770
H          0.58350       -0.30030        0.88520
H         -1.90720       -0.10090        0.87100
H         -1.91080       -0.15620       -0.88570
H         -0.84800       -2.46060       -0.80250
H         -0.92440       -2.41430        0.95290
H         -3.41190       -2.17790        0.83330
H         -3.20860       -2.67350       -1.91470
H         -2.81110       -6.32510        0.22350
