13
gdb 16260	3.29349	2.00946	1.43423	5.4315	64.72	-0.2691	-0.0371	0.232	839.7811	0.095697	-361.466848	-361.460106	-361.459162	-361.497909	24.982
O         -0.02110        0.02920       -0.05720
C         -0.01350        1.21590        0.05260
C         -1.12690        2.28920        0.15950
C         -0.04170        3.35990       -0.02300
C          0.94820        3.26390        1.07270
C          1.07620        2.26480       -0.08800
C          2.25310        2.18130       -0.88410
N          3.20160        2.10390       -1.54280
H         -1.80750        2.19120       -0.69060
H         -1.70790        2.33180        1.08460
H         -0.10570        4.21180       -0.68550
H          1.74130        4.00340        1.08780
H          0.65680        2.89080        2.05020
