14
gdb 19333	5.01711	1.69578	1.50363	3.9206	66.38	-0.2464	0.0051	0.2515	828.8537	0.108116	-341.506618	-341.500298	-341.499354	-341.536929	24.734
N          0.04970       -1.12530       -0.03510
C          0.01190        0.03220       -0.02970
C         -0.04790        1.45200       -0.01110
C          0.26670        2.31690       -1.21660
C          1.08620        2.48170        0.01960
N          0.49150        3.22000        1.19580
C         -0.87360        3.69670        0.87680
C         -0.66690        2.26360        1.15300
H          0.78700        1.77560       -2.00020
H         -0.44010        3.04820       -1.58880
H          2.15340        2.30670        0.04540
H         -1.28190        4.28880        1.69050
H         -1.12370        4.07230       -0.10780
H         -1.00950        1.76690        2.05390
