13
gdb 10239	2.35819	2.17116	1.13438	6.2152	73.54	-0.2048	-0.0151	0.1896	972.2505	0.095036	-357.643536	-357.635115	-357.634171	-357.675999	31.041
N          0.03470        1.34540        0.15220
C          0.00090       -0.01190       -0.00070
N          1.21390       -0.62290       -0.15780
H          1.19990       -1.63310       -0.13500
H          1.99330       -0.20720        0.32990
C         -1.19550       -0.71430        0.00140
C         -2.43570       -0.03210        0.01250
C         -3.47350        0.58410        0.02510
C         -1.14070       -2.13090       -0.00090
N         -1.02650       -3.28710       -0.00770
H          0.76960        1.83640       -0.33440
H         -0.86920        1.79630        0.11690
H         -4.39970        1.10240        0.03850
