13
gdb 2616	12.29481	0.94972	0.89624	3.8228	58.96	-0.331	0.0031	0.3341	1162.5027	0.101944	-303.533472	-303.526024	-303.52508	-303.565675	24.897
N         -0.05400       -1.17660       -0.00410
C         -0.04380       -0.02140        0.00240
C         -0.01040        1.43900        0.01020
C          1.42830        1.99000       -0.00110
C          1.42620        3.53060        0.00740
C          2.77730        4.08600       -0.00270
N          3.85170        4.51020       -0.01130
H         -0.56580        1.80420       -0.86190
H         -0.54820        1.79430        0.89730
H          1.97350        1.61680        0.87010
H          1.95610        1.62640       -0.88700
H          0.88500        3.91640       -0.86480
H          0.90240        3.90670        0.89430
