17
gdb 19937	3.73791	2.39571	1.95573	0.9464	66.7	-0.2092	0.0882	0.2974	743.1392	0.145003	-363.826075	-363.820032	-363.819087	-363.856019	24.462
C         -0.10330        1.38470       -0.52790
C          1.12770        1.72050        0.35150
N          1.33420        0.27180        0.62120
C          1.39420       -0.19290        2.01060
C         -0.03930       -0.51770        2.40070
O         -0.93410        0.58470        2.20630
C         -0.88090       -0.43370        1.19560
C          0.00630       -0.06060        0.02580
H         -1.02390        1.91440       -0.28230
H          0.08220        1.45350       -1.60090
H          1.97700        2.19170       -0.15560
H          0.87290        2.30250        1.24390
H          2.01300       -1.09690        2.10160
H          1.83680        0.57740        2.65220
H         -0.26610       -1.17010        3.24130
H         -1.79040       -1.01480        1.06220
H          0.02230       -0.87380       -0.71100
