14
gdb 849	7.07262	1.9847	1.56256	1.9695	60.5	-0.1637	0.0612	0.225	757.9357	0.115518	-320.778636	-320.771439	-320.770495	-320.80942	26.699
N          0.16450        1.40670        0.06690
C          0.00370        0.00490        0.01690
C         -1.11010       -0.80890        0.02240
C         -0.64940       -2.16170        0.03390
N         -1.48000       -3.30020        0.10780
C          0.72640       -2.12950        0.02460
N          1.10980       -0.79560        0.01600
H          0.37360        1.80250       -0.84580
H         -0.68370        1.84770        0.40100
H         -2.13820       -0.47890        0.00430
H         -2.29820       -3.20970       -0.48270
H         -0.98930       -4.14460       -0.15980
H          1.45490       -2.92340        0.01470
H          2.04330       -0.45040        0.15120
