15
gdb 20902	3.49134	1.91324	1.35975	2.7221	62.	-0.2211	0.0175	0.2385	895.8448	0.120653	-396.02759	-396.020037	-396.019092	-396.060428	26.841
C         -0.00010        1.57960       -0.01700
C          0.03200        0.05070        0.01750
N          0.74210       -0.47290        1.17280
C          2.06530       -0.80780        1.29770
N          2.37210       -1.21900        2.48920
N          1.18160       -1.13760        3.17470
C          0.12670       -0.68000        2.41710
O         -1.03700       -0.49530        2.71150
H          1.01060        1.99670       -0.06170
H         -0.55290        1.92400       -0.89620
H         -0.49790        1.96640        0.87590
H         -0.98560       -0.34540        0.07320
H          0.50410       -0.35520       -0.88250
H          2.77060       -0.74270        0.48350
H          1.13440       -1.40950        4.14060
