13
gdb 153	12.75002	3.20516	2.88061	1.3201	46.01	-0.2601	0.079	0.339	468.6229	0.1143	-232.324966	-232.319256	-232.318312	-232.35363	20.059
O         -0.04460        1.30840       -0.44750
C         -0.00600       -0.00020        0.10710
C         -1.39680       -0.57230        0.08120
C         -1.92220       -1.21110       -1.17730
C         -1.58820       -2.06680        0.01900
H          0.82360        1.70600       -0.33300
H          0.66850       -0.65760       -0.46760
H          0.36900        0.02290        1.14340
H         -2.11330       -0.01250        0.67550
H         -2.96570       -1.06340       -1.43130
H         -1.25810       -1.25300       -2.03420
H         -0.70240       -2.69160       -0.03430
H         -2.40120       -2.50290        0.58840
