15
gdb 10909	3.39093	2.02549	1.46209	3.1567	62.32	-0.2283	0.0036	0.2319	857.1607	0.117936	-399.780443	-399.772767	-399.771823	-399.812211	28.207
C         -0.09300        1.33100       -0.28210
N         -0.04110        0.00620        0.30340
C         -1.07990       -1.02550        0.23890
C         -0.97190       -1.80550       -1.04830
C          0.01190       -2.08080        0.07410
O          0.15380       -3.35360        0.56040
C          1.00500       -0.91200        0.13240
O          2.19260       -0.76020        0.05160
H          0.93100        1.70640       -0.35030
H         -0.53520        1.32270       -1.28830
H         -0.67410        2.01170        0.34740
H         -1.93130       -1.01680        0.90580
H         -1.69440       -2.60710       -1.17860
H         -0.65860       -1.31900       -1.96770
H          0.53300       -3.30430        1.44550
