13
gdb 716	6.30002	5.36887	4.24885	1.6922	52.04	-0.2409	0.0905	0.3314	402.5187	0.110858	-249.292101	-249.287806	-249.286862	-249.319353	17.15
C         -0.01650        1.50050        0.14190
C          1.49200        1.37980        0.03140
C          1.91800        0.09310        0.66310
C          0.68700       -0.62410        1.18500
C          0.00970       -0.02660       -0.06370
N          1.41170        0.09830       -0.75470
H         -0.46680        1.89920        1.05750
H         -0.43030        2.01260       -0.73050
H          2.20750        2.15090       -0.23170
H          2.95880       -0.11800        0.88230
H          0.80130       -1.70740        1.09590
H          0.28480       -0.37090        2.17200
H         -0.79670       -0.54590       -0.57750
