19
gdb 9348	6.33792	0.8343	0.79894	2.2456	69.75	-0.247	0.0645	0.3115	1496.5623	0.164195	-402.249257	-402.239277	-402.238333	-402.285702	33.523
C         -0.34860        1.34080       -0.17950
C         -0.13820       -0.16020       -0.39220
C          1.28210       -0.48560       -0.87170
N          1.52150       -1.90370       -1.06470
C          1.42680       -2.49370       -2.28690
O          1.26390       -1.92180       -3.34280
O          1.56000       -3.84110       -2.15790
C          1.50560       -4.56290       -3.38900
H          0.34380        1.73780        0.57150
H         -0.18410        1.89820       -1.10810
H         -1.36580        1.55460        0.16100
H         -0.33740       -0.70120        0.54240
H         -0.85120       -0.54170       -1.13210
H          1.47280       -0.00410       -1.83420
H          2.01790       -0.09720       -0.15620
H          1.56650       -2.51490       -0.26570
H          0.55110       -4.40010       -3.89660
H          2.31340       -4.25590       -4.05880
H          1.61670       -5.61410       -3.12040
