14
gdb 10382	2.67729	2.04013	1.43166	2.9626	62.74	-0.254	-0.0533	0.2007	872.5226	0.107066	-378.708634	-378.701024	-378.700079	-378.741026	26.676
O         -0.12930        0.01590       -0.27750
C         -0.02880        1.17070        0.02530
C          1.29350        1.94770        0.01280
C          2.48160        1.15260       -0.59960
N          2.20630        1.79870       -1.90300
C          1.40150        2.85760       -1.26670
C          1.48420        2.61220        1.28850
N          1.61840        3.13970        2.30900
H         -0.90470        1.78390        0.32530
H          3.43630        1.42370       -0.13400
H          2.35100        0.06820       -0.59530
H          3.02220        2.12390       -2.40770
H          0.45960        3.09260       -1.77480
H          1.93080        3.79180       -1.04120
