10
gdb 21408	4.14372	2.06569	1.37849	2.4237	54.01	-0.2997	-0.1124	0.1872	782.1313	0.060418	-446.762348	-446.755988	-446.755043	-446.793388	22.687
N         -0.10600        1.31990        0.13710
C         -0.02210        0.06860       -0.02010
N         -1.13250       -0.74680       -0.07330
C         -1.11470       -2.11300       -0.24180
O         -2.09090       -2.80090       -0.28490
O          0.13570       -2.65100       -0.36070
N          1.34710       -1.80940       -0.30860
N          1.23280       -0.60660       -0.15610
H          0.82470        1.73380        0.14850
H         -2.04170       -0.31400        0.01840
