19
gdb 14132	3.85342	1.59601	1.44536	2.0879	71.3	-0.2097	0.0735	0.2832	955.4481	0.16437	-364.993	-364.984793	-364.983849	-365.02579	30.804
C         -0.11150        1.50400        0.38430
N         -0.04170        0.09370        0.02190
C          0.89460       -0.64510        0.85260
C         -1.33220       -0.49420       -0.10920
C         -2.29200       -0.86900        1.02300
C         -1.84590       -1.90350        0.02690
O         -2.63050       -1.82450       -1.16470
C         -2.12270       -0.48580       -1.41980
H          0.88400        1.95240        0.30620
H         -0.77560        2.03180       -0.30670
H         -0.48550        1.66970        1.41100
H          0.63730       -0.64110        1.92850
H          0.95030       -1.68330        0.51550
H          1.89050       -0.20100        0.75410
H         -1.82470       -0.94320        2.00060
H         -3.32890       -0.54310        1.02610
H         -1.37990       -2.85280        0.26590
H         -2.92820        0.24810       -1.53940
H         -1.46670       -0.47960       -2.29690
