20
gdb 12375	2.82453	2.05808	1.30875	1.0931	77.84	-0.2335	0.0272	0.2607	993.7366	0.177469	-349.023948	-349.015778	-349.014834	-349.056108	31.396
C          0.05790        1.54560       -0.08530
C          0.04110        0.02120        0.03640
O          0.59390       -0.46720       -1.17760
C          0.90390       -1.84750       -1.14850
C          2.01910       -2.12560       -0.14210
C          1.68250       -1.45950        1.16420
C          0.76590       -0.49490        1.26900
C          0.36780        0.09980        2.59340
H          1.08730        1.91620       -0.08690
H         -0.41520        1.83580       -1.02690
H         -0.48690        2.01760        0.73600
H         -1.01530       -0.30680        0.10790
H          0.00970       -2.43700       -0.88480
H          1.19790       -2.11700       -2.16720
H          2.13510       -3.20790       -0.00080
H          2.97920       -1.76030       -0.53220
H          2.19760       -1.80770        2.05720
H          0.85070       -0.42790        3.42010
H          0.63720        1.16010        2.66680
H         -0.71810        0.04200        2.74500
