13
gdb 19327	5.31731	1.69038	1.51559	3.3315	65.16	-0.2282	0.0075	0.2357	819.3403	0.093813	-361.315478	-361.309011	-361.308066	-361.345827	25.588
C          0.00410       -1.18880       -0.11620
C          0.04720        0.01070       -0.03740
C          0.06250        1.42030        0.11560
O          0.20660        2.28380       -1.02240
C          1.13430        2.43260        0.04120
C          0.46800        3.24440        1.20830
N         -0.90590        3.59650        0.77710
C         -0.61430        2.24210        1.28640
H         -0.02710       -2.24690       -0.20130
H          2.19080        2.32770       -0.17390
H          0.98920        3.77410        1.99340
H         -1.33170        4.11180        1.54850
H         -1.11540        1.80650        2.13970
