12
gdb 20334	6.03442	1.37003	1.2825	2.6169	60.84	-0.2904	-0.0308	0.2596	917.6343	0.084639	-373.643687	-373.63691	-373.635965	-373.675689	23.607
C         -0.01020       -1.22060        0.07650
C          0.01650       -0.02220        0.02740
C          0.02340        1.43350       -0.03350
N          1.36950        2.00060        0.00530
N          2.12500        2.02360        1.09560
C          3.22350        2.60480        0.63170
N          3.13580        2.92070       -0.68120
N          1.94890        2.52790       -1.06760
H         -0.02820       -2.28200        0.12030
H         -0.41990        1.79140       -0.96630
H         -0.53900        1.85980        0.80270
H          4.08910        2.80620        1.24130
