15
gdb 20009	4.43776	1.36022	1.1875	3.0136	62.57	-0.2585	-0.0456	0.2129	998.4349	0.118099	-399.748266	-399.740734	-399.73979	-399.78065	26.812
O         -0.11270        0.13820        0.53660
C          0.38910        0.71440       -0.39530
C          1.38410        1.81490       -0.20440
O          2.33930        2.03030       -1.25880
C          1.37020        3.04370       -1.04110
C          0.39430        3.29730       -2.15220
C          0.91070        3.70880       -3.48250
N          0.31900        2.37270       -3.28810
H          0.13890        0.47060       -1.44720
H          1.78560        1.88180        0.80550
H          1.75770        3.94040       -0.55300
H         -0.56530        3.69030       -1.82250
H          0.33140        4.38710       -4.10160
H          1.98830        3.77770       -3.60670
H          1.08110        1.70260       -3.19560
