18
gdb 20544	4.35346	1.3564	1.33422	1.9274	73.48	-0.2395	0.028	0.2675	1021.9755	0.155239	-344.017934	-344.009887	-344.008942	-344.051027	29.797
C         -0.03860        1.57590        0.17950
C         -0.05810        0.04570        0.01660
C          0.85760       -0.63220        1.05100
C         -1.46020       -0.49740        0.08260
N         -1.99050       -1.12640       -0.96580
N         -3.23140       -1.47280       -0.56740
C         -3.50880       -1.08520        0.69990
C         -2.38050       -0.44510        1.16150
H          0.98210        1.96190        0.08690
H         -0.65860        2.06180       -0.57950
H         -0.41910        1.87290        1.16330
H          0.31490       -0.19800       -0.98460
H          0.51620       -0.43080        2.07260
H          0.87510       -1.71710        0.91200
H          1.88350       -0.25880        0.96330
H         -3.82800       -1.96770       -1.20760
H         -4.46230       -1.29020        1.16110
H         -2.24030       -0.00390        2.13510
