19
gdb 18472	3.40645	1.52528	1.34157	2.1508	70.78	-0.2339	0.068	0.3019	1002.3623	0.165781	-365.004403	-364.996203	-364.995259	-365.037065	30.752
C         -0.43310        1.51950        0.09420
C         -0.03930        0.04730        0.13480
C          0.87460       -0.60230       -0.93980
N          1.74990       -1.25620        0.10460
C          2.38680       -0.17610        0.90020
C          3.02700        1.05500        0.30320
O          4.31380        0.74950       -0.21600
C          0.96430       -0.47720        1.16450
H          0.42980        2.18430        0.00510
H         -1.09630        1.71840       -0.75490
H         -0.97290        1.79960        1.00560
H         -0.95130       -0.55260        0.21650
H          0.38460       -1.37480       -1.53500
H          1.40170        0.07340       -1.62110
H          3.05450       -0.63260        1.63090
H          2.39740        1.52940       -0.45910
H          3.18800        1.79720        1.09280
H          4.21390       -0.01300       -0.79630
H          0.67310       -0.94730        2.10040
