16
gdb 5767	5.96203	1.39996	1.22521	3.2071	72.6	-0.1915	0.0423	0.2338	981.4739	0.133388	-342.789384	-342.782445	-342.781501	-342.821102	26.365
C          0.05100        1.56470        0.01360
N          1.23470        0.70130       -0.07760
C         -0.08690        0.07450        0.05820
C         -0.33500       -0.66740        1.31030
C          0.46500       -0.88520        2.41080
C         -0.28890       -1.64510        3.34820
C         -1.52730       -1.87160        2.79580
N         -1.54500       -1.27540        1.55810
H         -0.02840        2.12610        0.93970
H         -0.29130        2.08730       -0.87660
H          1.55490        0.63770       -1.03940
H         -0.51790       -0.37670       -0.83660
H          1.48100       -0.53790        2.50820
H          0.04430       -1.99280        4.31410
H         -2.38740       -2.40550        3.16670
H         -2.33310       -1.26260        0.93460
