20
gdb 6835	3.06609	1.43768	1.2696	2.1735	71.09	-0.252	0.0732	0.3252	1062.25	0.175339	-386.12639	-386.117245	-386.116301	-386.159686	34.325
C         -0.07960        1.57120       -0.10800
C         -0.00240        0.04850       -0.01670
O         -1.28830       -0.52710       -0.16800
C          1.15070       -0.55630       -0.87890
C          2.01450       -0.65020        0.40760
C          0.71430       -0.51560        1.24310
C          0.72770        0.26160        2.54260
O          1.49140       -0.48950        3.47870
H          0.89920        2.03970        0.03250
H         -0.44060        1.86810       -1.10120
H         -0.77010        1.97470        0.63890
H         -1.70460       -0.13660       -0.94440
H          0.86010       -1.54250       -1.24930
H          1.52920        0.04490       -1.71060
H          2.60780       -1.55350        0.55330
H          2.67010        0.21750        0.53110
H          0.29600       -1.50850        1.43590
H          1.17000        1.25890        2.38790
H         -0.30530        0.40990        2.89770
H          1.52080        0.00220        4.30450
