20
gdb 20121	3.21521	1.51194	1.12359	1.6958	74.83	-0.2581	0.0912	0.3493	1105.4663	0.176169	-348.970577	-348.96199	-348.961046	-349.003958	31.799
C          0.29510        1.82040        0.02680
C          0.09340        0.29740       -0.00410
C          0.66190       -0.31120       -1.27520
C          0.17610       -1.64920       -1.76650
C         -0.18060       -0.39330       -2.52400
C          0.70770       -0.34360        1.22450
C         -0.04650       -0.54650        2.46730
O          0.23260       -1.64070        1.59050
H          1.36140        2.07530        0.02910
H         -0.15330        2.28630       -0.85540
H         -0.15590        2.26670        0.91880
H         -0.98270        0.07960        0.02640
H          1.71860       -0.10020       -1.42880
H          0.89630       -2.32920       -2.20760
H         -0.60070       -2.13910       -1.19050
H         -1.20540       -0.03950       -2.46630
H          0.29440       -0.21450       -3.48230
H          1.79230       -0.23490        1.30680
H          0.47150       -0.56930        3.42520
H         -1.09200       -0.24240        2.51480
