18
gdb 13603	4.43419	1.24363	1.17132	2.7604	71.53	-0.2224	0.018	0.2404	1106.5646	0.153235	-381.120715	-381.11171	-381.110766	-381.154715	31.723
C          0.94280        1.53370       -0.02660
N          1.05550        0.10520       -0.24300
C          0.16460       -0.59760       -1.00150
O         -0.78770       -0.07510       -1.56300
C          0.46690       -2.07000       -1.08290
C         -0.65570       -2.98970       -1.44700
N          0.44760       -2.79540       -2.36230
C          0.19980       -2.08010       -3.61340
H          1.79440        2.07340       -0.45640
H          0.02840        1.86460       -0.52000
H          0.88200        1.76940        1.04150
H          1.83210       -0.38670        0.16580
H          1.24040       -2.42560       -0.40330
H         -0.72390       -3.96640       -0.97430
H         -1.60050       -2.49790       -1.67000
H         -0.52850       -1.26680       -3.52720
H          1.14740       -1.66980       -3.97750
H         -0.15450       -2.81040       -4.34760
