17
gdb 6013	2.70875	1.6201	1.55048	3.4716	64.93	-0.2449	-0.0291	0.2158	941.7793	0.139197	-401.049564	-401.04005	-401.039106	-401.083991	33.672
C          0.25730        1.55740        0.11420
C          0.09680        0.03870        0.01420
C          0.43010       -0.65130        1.36110
C         -1.36050       -0.32280       -0.30720
O         -2.26240        0.47280       -0.33540
C          0.94040       -0.65930       -1.07630
N          1.67530        0.13930       -1.89550
O          0.91680       -1.87110       -1.19710
H          1.28640        1.83000        0.36880
H         -0.03360        2.05960       -0.81330
H         -0.39890        1.94800        0.89520
H         -0.23570       -0.28910        2.15020
H          0.32950       -1.73400        1.27000
H          1.46100       -0.42740        1.65250
H         -1.51840       -1.40400       -0.49700
H          1.70760        1.13780       -1.80450
H          2.21760       -0.30500       -2.61830
