16
gdb 2325	4.96427	1.73717	1.43338	2.3417	61.64	-0.2324	-0.0248	0.2076	854.0564	0.13482	-325.7484	-325.740616	-325.739672	-325.78113	27.013
C         -0.10920        1.55740        0.29370
N          0.01510        0.11590        0.12410
C          1.30150       -0.40860       -0.31610
C          0.80940       -0.67070        1.06680
C          1.51140       -0.07020        2.27490
C          0.56470        0.12350        3.44310
O          0.46370        1.13590        4.08560
H          0.82120        2.06900        0.58460
H         -0.44370        1.98820       -0.65510
H         -0.86890        1.77250        1.05130
H          1.27350       -1.18460       -1.07700
H          2.12970        0.29370       -0.41470
H          0.36780       -1.64660        1.27080
H          2.28590       -0.78040        2.60140
H          2.00460        0.87960        2.05940
H         -0.05720       -0.77170        3.68090
