10
gdb 499	10.361	1.92543	1.71402	3.7921	45.77	-0.2819	-0.0051	0.2768	660.5683	0.070779	-305.145002	-305.13858	-305.137636	-305.175765	20.964
O          0.19150        0.08960       -0.10240
C          0.32980        1.26660       -0.23140
O          0.61030        2.08110        0.80960
C          0.79260        3.47420        0.50350
C          2.14560        3.77420        0.05440
C          3.25960        4.01650       -0.32290
H          0.23410        1.80990       -1.19150
H          0.05910        3.79310       -0.24850
H          0.56430        4.00350        1.43210
H          4.24620        4.23160       -0.65350
