15
gdb 5105	3.41846	2.12956	1.33412	5.045	63.06	-0.2075	0.0298	0.2373	885.2419	0.118837	-399.861763	-399.853993	-399.853049	-399.893854	27.735
C         -0.01730        1.44510        0.03170
N          0.00150       -0.00090        0.04920
C         -0.01970       -0.75420       -1.10760
O         -0.05450       -0.38600       -2.25310
O          0.00730       -2.07060       -0.70510
C          0.04400       -2.09750        0.67440
C          0.04140       -0.85030        1.16500
C          0.07210       -0.35280        2.56620
H          0.88100        1.86210        0.49870
H         -0.04900        1.74860       -1.01580
H         -0.89980        1.83950        0.54600
H          0.06840       -3.06520        1.14320
H          0.10090       -1.19710        3.25850
H          0.95300        0.27100        2.75750
H         -0.81280        0.24890        2.80400
