15
gdb 1780	5.02384	1.84645	1.66535	2.6666	58.73	-0.2538	-0.034	0.2198	791.4555	0.121864	-345.653983	-345.646061	-345.645117	-345.686105	27.548
C         -0.01310        1.37690       -0.27080
C          0.34360       -0.07560       -0.08660
O          1.70960       -0.41760        0.11060
C          0.79810       -0.66610        1.20120
C          0.97890        0.10960        2.47970
C          0.50570       -2.13100        1.35410
O          0.18390       -2.65660        2.38850
H          0.53800        2.02410        0.41290
H          0.22200        1.68660       -1.29430
H         -1.08620        1.52650       -0.11350
H         -0.17430       -0.75050       -0.77350
H          1.15070        1.16920        2.29110
H          0.09440       -0.00730        3.11150
H          1.83340       -0.28530        3.03700
H          0.62090       -2.70190        0.40540
