13
gdb 4408	3.84252	2.09431	1.35609	3.5932	66.47	-0.2136	-0.0313	0.1823	838.3941	0.09765	-394.829842	-394.823152	-394.822207	-394.860545	25.519
N          0.07210        1.31400        0.12180
C         -0.04970       -0.03280        0.04250
N         -1.20390       -0.61430        0.02440
C         -1.16350       -1.99120       -0.00410
C         -0.02650       -2.72190       -0.02180
C          1.24920       -2.05430       -0.01250
N          2.39050       -2.60180       -0.03180
O          1.15510       -0.63860        0.02020
H          0.95990        1.73020       -0.10140
H         -0.76460        1.84920       -0.03720
H         -2.13550       -2.47510       -0.01390
H         -0.02210       -3.80220       -0.04590
H          3.13510       -1.90550       -0.01740
