12
gdb 20752	7.33185	1.35477	1.15165	1.3657	66.56	-0.2729	-0.0594	0.2135	973.2789	0.083045	-377.496736	-377.489689	-377.488745	-377.528073	25.182
C          0.00980        1.48870        0.00540
C         -0.00120       -0.00040       -0.00620
N         -0.08620       -0.69460       -1.11440
O         -0.06350       -2.02010       -0.68370
C          0.03410       -1.97700        0.65830
N          0.07630       -0.76560        1.13580
C          0.07690       -3.20010        1.36190
C          0.11260       -4.24720        1.95020
H          0.93400        1.85580        0.46120
H         -0.06880        1.87470       -1.01180
H         -0.82470        1.86760        0.60230
H          0.14450       -5.17040        2.47580
