18
gdb 12106	4.5214	1.22388	1.09529	2.3871	67.5	-0.2628	0.079	0.3418	1108.7717	0.151935	-384.898236	-384.889889	-384.888945	-384.931606	30.34
C         -0.25550        1.51090       -0.45390
C         -0.05570        0.04960       -0.11430
C         -1.30140       -0.82000       -0.05510
C         -2.22820       -0.42890        1.07540
C         -3.43080        0.39020        0.87110
O         -3.52770       -1.02160        1.05980
C          1.24650       -0.58290       -0.37230
O          0.87660       -0.19720        0.95370
H          0.69950        2.04130       -0.43710
H         -0.69890        1.62070       -1.44960
H         -0.92520        1.99120        0.26610
H         -1.84620       -0.76690       -1.00500
H         -0.99940       -1.86300        0.09010
H         -1.75980       -0.40780        2.06010
H         -3.82000        1.00020        1.68530
H         -3.67530        0.74480       -0.13000
H          1.30330       -1.65640       -0.54960
H          2.04930        0.00140       -0.82090
