10
gdb 4223	5.49724	1.37233	1.37232	3.2346	43.99	-0.292	0.0148	0.3068	876.5804	0.061589	-453.655583	-453.648296	-453.647351	-453.689181	23.69
C         -0.01790        1.47780        0.01010
C          0.00090        0.02510        0.00250
C          0.01720       -1.17580       -0.00390
C          0.03770       -2.63290       -0.01240
F         -1.20310       -3.14210       -0.00390
F          0.65870       -3.10940       -1.10160
F          0.67850       -3.12140        1.05980
H          0.99990        1.88080        0.00180
H         -0.54350        1.86540       -0.86860
H         -0.52540        1.85620        0.90330
