13
gdb 599	6.09231	2.90988	2.26761	4.1979	54.41	-0.2867	0.0307	0.3174	577.6433	0.108412	-249.363949	-249.35778	-249.356836	-249.393472	22.047
C         -0.07260        1.53530       -0.04140
C          0.01810        0.02870        0.02020
C          1.31470       -0.68070       -0.22380
C          0.72190       -0.67270        1.18000
C          1.35680        0.09760        2.21120
N          1.86390        0.72230        3.04320
H          0.83620        2.00530        0.34480
H         -0.21370        1.86800       -1.07490
H         -0.91530        1.90480        0.55130
H         -0.87340       -0.49470       -0.31400
H          1.31530       -1.62930       -0.74800
H          2.19970       -0.07430       -0.38090
H          0.28260       -1.59900        1.53420
