19
gdb 13766	3.25648	1.49211	1.26586	0.8618	78.49	-0.2238	0.0338	0.2576	1050.8899	0.163104	-327.8622	-327.853253	-327.852308	-327.895484	33.695
C          0.38830        1.57440       -0.03580
C          0.10050        0.07580        0.12260
C          0.60490       -0.43770        1.47570
N         -1.31710       -0.33710        0.00360
C         -2.39220        0.61690       -0.18320
C         -2.01090       -0.31890       -1.29260
C         -1.38570        0.17640       -2.48940
C         -0.85990        0.52840       -3.51330
H          1.46690        1.74630        0.03580
H          0.05560        1.95840       -1.00290
H         -0.09150        2.15620        0.75910
H          0.63410       -0.45940       -0.67230
H          0.08050        0.06270        2.29720
H          0.42700       -1.51180        1.56850
H          1.67690       -0.24670        1.59090
H         -3.29990        0.42890        0.38580
H         -2.15680        1.66680       -0.33400
H         -2.63140       -1.19830       -1.45730
H         -0.40180        0.85330       -4.41460
