13
gdb 7936	3.54308	2.00028	1.36567	2.8186	55.82	-0.2971	-0.0168	0.2803	853.1447	0.095859	-435.804212	-435.797308	-435.796364	-435.835686	24.883
C         -0.02780        1.55530       -0.02530
C          0.02810        0.03640        0.01330
O          0.82300       -0.48360       -1.07080
C          1.82650       -1.24680       -0.60110
O          2.64180       -1.81150       -1.24810
O          1.77920       -1.28440        0.78220
C          0.72320       -0.52510        1.23440
N          0.40250       -0.33110        2.43020
H          0.97750        1.98110        0.03190
H         -0.50420        1.89300       -0.94850
H         -0.60770        1.91030        0.82990
H         -0.97620       -0.39050       -0.07690
H          1.02620       -0.81500        3.07670
