13
gdb 21660	3.54956	1.87059	1.22674	2.8839	63.5	-0.2243	-0.0378	0.1866	899.5038	0.097697	-394.814647	-394.80765	-394.806706	-394.845823	25.75
N         -0.01750        1.35170        0.14500
C          0.04900       -0.02680        0.03770
N         -1.05800       -0.76020        0.03090
N         -0.60200       -2.04630       -0.00490
C          0.72960       -2.14360       -0.03440
C          1.22520       -0.84270       -0.00410
C          2.62170       -0.45340        0.00620
O          3.55970       -1.22400       -0.04040
H          0.69260        1.85350       -0.36750
H         -0.94320        1.71100       -0.04560
H         -1.27670       -2.79230       -0.01250
H          1.25200       -3.08610       -0.06820
H          2.79810        0.64510        0.06660
