22
gdb 6535	3.07057	1.57859	1.25743	1.6925	78.52	-0.252	0.0823	0.3342	1098.5945	0.196757	-350.208686	-350.198497	-350.197553	-350.243154	37.352
C          0.33950        1.26520        0.42500
C         -0.40760        0.14730       -0.31530
C          0.41570       -0.45240       -1.45310
C          0.40800        0.40730       -2.70660
O          1.71030       -0.96300       -1.07380
C          0.71980       -1.90720       -1.52080
C          0.23670       -2.87620       -0.45580
C          1.01930       -2.60140       -2.83730
H          1.27870        0.88300        0.83410
H          0.57920        2.10590       -0.23370
H         -0.26470        1.65440        1.24990
H         -0.69530       -0.62200        0.40420
H         -1.34230        0.53720       -0.73780
H          1.19540        0.11870       -3.40240
H         -0.55860        0.33980       -3.21830
H          0.56990        1.45840       -2.44680
H          0.24160       -2.42650        0.53690
H         -0.77460       -3.23500       -0.67780
H          0.89730       -3.74970       -0.42520
H          1.80190       -3.35330       -2.68690
H          0.12780       -3.12240       -3.20390
H          1.35890       -1.91510       -3.61200
