17
gdb 15376	3.87324	1.16684	1.01805	4.0862	66.04	-0.2348	-0.0165	0.2182	1155.7176	0.139673	-400.959456	-400.950563	-400.949618	-400.993957	30.678
O          0.00690        1.50470        0.17130
C          0.04360        0.08850        0.25800
C         -1.32770       -0.50450        0.00370
C         -2.55640        0.33650        0.01980
N         -2.09480       -0.28970       -1.22080
C         -1.56680        0.56510       -2.27410
C         -2.66020        0.87330       -3.28400
O         -2.61690        1.78730       -4.06540
H          0.91030        1.83340        0.19860
H          0.76310       -0.33320       -0.46270
H          0.36490       -0.23650        1.26050
H         -1.39660       -1.52850        0.37010
H         -3.48610       -0.05020        0.42830
H         -2.40460        1.40660        0.13400
H         -1.11070        1.50190       -1.93050
H         -0.78980        0.00660       -2.81780
H         -3.51400        0.15970       -3.25270
