17
gdb 20257	3.62843	2.96227	2.40135	1.4235	69.46	-0.2309	0.0819	0.3128	665.2597	0.146225	-326.671018	-326.665849	-326.664905	-326.699847	22.741
C         -0.02550        1.56520        0.03930
C          1.52820        1.50590       -0.01850
C          2.07890        1.31550        1.40240
N          1.81230       -0.08190        1.77900
C          0.57170       -0.68620        1.26680
C          1.89640       -0.91540        0.59330
C          1.44270        0.02100       -0.56070
C         -0.00690        0.02430        0.01090
H         -0.47360        2.07200        0.90060
H         -0.46190        1.96910       -0.87900
H          2.05320        2.26370       -0.60220
H          3.16480        1.45840        1.44090
H          1.62000        1.99830        2.12500
H          0.01210       -1.30930        1.95610
H          2.55960       -1.77230        0.56190
H          1.67040       -0.19350       -1.60150
H         -0.81400       -0.53730       -0.46220
