15
gdb 19117	3.45519	3.44518	3.44502	1.8198	64.99	-0.2075	0.0492	0.2566	568.513	0.122191	-325.38813	-325.383723	-325.382778	-325.416265	19.808
C         -0.03940        1.54690        0.03810
C         -0.06620        1.56800       -1.53540
C         -0.00850        0.01000       -1.53900
C         -0.02120       -0.02680        0.01970
C          1.53620        0.01050       -0.04270
C          1.53430        1.56830        0.01460
C          1.49280        1.55020       -1.54390
N          1.52370        0.01810       -1.57510
H         -0.66520        2.15920        0.68390
H         -0.71080        2.19420       -2.15010
H         -0.54640       -0.65970       -2.21050
H         -0.62960       -0.67530        0.64800
H          2.22450       -0.65890        0.47400
H          2.16900        2.19480        0.63920
H          2.14660        2.10310       -2.21890
