13
gdb 20759	7.55944	1.26673	1.0923	4.8711	64.65	-0.2725	-0.0814	0.1911	1020.9359	0.094792	-398.609231	-398.602049	-398.601104	-398.641003	25.096
C         -0.00970        1.51020       -0.01200
C         -0.00190        0.01650        0.03690
N         -0.07560       -0.68530       -1.07530
O         -0.04660       -2.01690       -0.70980
C          0.04490       -2.09770        0.63020
C          0.09250       -3.41790        1.27300
O          0.05600       -4.47230        0.68910
C          0.07780       -0.84410        1.16730
H          0.90430        1.92020        0.42910
H         -0.08160        1.84860       -1.04700
H         -0.85760        1.91490        0.54970
H          0.16780       -3.35390        2.37940
H          0.14800       -0.57560        2.20900
