14
gdb 2612	11.91652	0.95161	0.89581	3.6757	64.06	-0.2743	0.0209	0.2953	1189.673	0.112156	-287.426977	-287.419156	-287.418211	-287.459368	26.995
C         -0.02960       -1.22580       -0.00420
C         -0.03490       -0.02430        0.00240
C         -0.00640        1.43230        0.01030
C          1.42840        1.99460       -0.00130
C          1.42610        3.53550        0.00750
C          2.77460        4.09710       -0.00290
N          3.84750        4.52580       -0.01190
H         -0.03670       -2.28770       -0.00980
H         -0.55720        1.81510       -0.85930
H         -0.53920        1.80520        0.89540
H          1.97610        1.62250        0.86930
H          1.95810        1.63250       -0.88700
H          0.88300        3.92030       -0.86400
H          0.90090        3.91030        0.89430
