13
gdb 4686	6.36973	1.38085	1.1429	1.0856	72.38	-0.2273	-0.0285	0.1988	990.0043	0.094983	-361.474479	-361.467204	-361.46626	-361.506129	26.244
C          0.01040        1.43520        0.14090
C         -0.01750       -0.03790       -0.04490
N         -0.12540       -0.71000       -1.15250
C         -0.09850       -2.03410       -0.76230
C          0.02720       -2.11040        0.59290
O          0.08010       -0.81310        1.06150
C          0.10500       -3.16920        1.50880
C          0.17040       -4.09150        2.28080
H          0.94370        1.75260        0.61700
H         -0.07670        1.91590       -0.83340
H         -0.81470        1.76530        0.78030
H         -0.17020       -2.84470       -1.46930
H          0.22810       -4.90460        2.96140
