16
gdb 16932	3.60959	2.14458	1.93146	3.6219	63.56	-0.2281	-0.0191	0.209	755.6525	0.132948	-383.765643	-383.75954	-383.758596	-383.79577	24.462
O          0.01630       -0.00820       -0.02690
C         -0.00960        1.19170       -0.01070
C         -1.25350        2.10810        0.03580
C         -0.61450        3.51380        0.08290
C          0.10130        3.64520        1.43400
O          1.19080        2.70420        1.33850
C          1.17430        2.17750       -0.00410
C          0.61850        3.33220       -0.84060
H         -1.84580        1.95470       -0.87290
H         -1.89020        1.86920        0.89240
H         -1.28590        4.33900       -0.15430
H          0.50210        4.65310        1.60170
H         -0.53440        3.37590        2.28520
H          2.14830        1.75220       -0.23700
H          0.35780        3.04250       -1.86250
H          1.28460        4.19800       -0.86080
