17
gdb 6004	2.68265	1.86094	1.44064	2.9388	70.37	-0.2418	0.0311	0.273	938.8243	0.139215	-363.872955	-363.863498	-363.862554	-363.906883	34.741
C          0.44630        1.57860        0.57850
C          0.23870        0.10220        0.16020
C          0.51250       -0.82890        1.36670
C         -1.13030       -0.09250       -0.31940
C         -2.26050       -0.24920       -0.70320
C          1.31260       -0.22240       -0.92170
N          0.85200       -0.63090       -2.12820
O          2.49460       -0.10400       -0.66050
H          1.48640        1.71860        0.87950
H          0.22580        2.25650       -0.25050
H         -0.21310        1.82970        1.41340
H         -0.14710       -0.57040        2.19910
H          0.33950       -1.87560        1.10230
H          1.55320       -0.71210        1.67540
H         -3.26230       -0.38440       -1.02960
H         -0.13330       -0.71800       -2.31020
H          1.52250       -0.84790       -2.84680
