13
gdb 20719	7.0819	1.34241	1.13644	2.2187	70.37	-0.2473	-0.0331	0.2142	994.5938	0.096168	-357.646326	-357.639062	-357.638118	-357.677916	26.225
C          0.00740        1.47220       -0.04390
C          0.00050       -0.01780        0.01640
N         -0.07840       -0.77620       -1.07330
N         -0.05320       -2.02370       -0.56320
C          0.03820       -1.98210        0.78980
N          0.07410       -0.71590        1.18480
C          0.08390       -3.14380        1.59370
C          0.12080       -4.15140        2.24950
H          0.92330        1.87170        0.40210
H         -0.05930        1.80680       -1.08020
H         -0.83530        1.88460        0.51930
H         -0.10010       -2.82690       -1.16890
H          0.15440       -5.03270        2.84190
