14
gdb 12632	3.47806	1.9961	1.3656	1.4688	58.4	-0.2723	-0.042	0.2303	854.4587	0.106014	-419.687847	-419.680281	-419.679336	-419.719713	27.652
O          0.39240        1.33110       -0.25530
C          0.12910       -0.01710        0.04040
C          0.76240       -0.53070        1.31690
C         -0.07550       -1.28390        2.03570
C         -1.43480       -1.42300        1.38210
O         -2.53060       -1.29670        2.25250
C         -1.34120       -0.26600        0.38460
O         -2.24900        0.47680        0.10490
H         -0.46720        1.75460       -0.38890
H          0.41530       -0.65150       -0.81760
H          1.79180       -0.30380        1.56710
H          0.15310       -1.77700        2.97290
H         -1.50380       -2.37690        0.82890
H         -3.10390       -0.61580        1.87320
