11
gdb 5059	3.74009	2.40654	1.69741	2.6158	59.27	-0.2566	-0.0974	0.1592	711.9418	0.073821	-393.596961	-393.590974	-393.59003	-393.627139	21.655
O         -0.20110        0.42820       -1.16370
C         -0.07060        1.28720       -0.32930
C         -1.23500        1.88240        0.42810
N         -1.52010        3.12750        0.34940
C         -0.70080        4.04760       -0.25800
N          0.59130        4.11720       -0.22000
C          1.34490        3.06760        0.24610
N          1.12940        1.80120        0.13870
H         -1.86760        1.22940        1.03150
H         -1.23370        4.88120       -0.71270
H          2.28900        3.37070        0.69820
