22
gdb 9774	3.0482	1.66811	1.47802	1.001	77.6	-0.2447	0.0797	0.3244	1009.8247	0.20042	-350.217769	-350.208877	-350.207933	-350.251479	33.521
C         -0.17780        1.26340       -0.06040
O         -0.05470       -0.12330        0.15420
C          0.78670       -0.56150        1.23900
C          2.20000        0.01140        1.12040
C          0.10230       -0.27170        2.59410
C         -1.00170       -1.33310        2.67780
C         -0.30130       -2.60810        2.16700
C          0.74840       -2.11130        1.13690
H          0.75720        1.72270       -0.41070
H         -0.93360        1.39000       -0.84060
H         -0.51440        1.81030        0.83220
H          2.22150        1.09530        1.26920
H          2.85080       -0.43650        1.87710
H          2.62110       -0.20740        0.13370
H          0.83170       -0.42000        3.40090
H         -0.26150        0.75610        2.67820
H         -1.41810       -1.44670        3.68260
H         -1.82080       -1.05660        2.00630
H          0.19910       -3.11350        3.00060
H         -1.00200       -3.32850        1.73690
H          0.48230       -2.37550        0.11130
H          1.73560       -2.53630        1.33820
