12
gdb 20530	5.1065	1.73855	1.30739	3.2453	56.53	-0.3003	-0.0796	0.2207	851.9087	0.083785	-410.84593	-410.839094	-410.83815	-410.877538	23.534
C         -0.02360        1.50810       -0.04210
C         -0.02750        0.01190        0.08130
O         -0.04950       -0.62390        1.09890
N         -0.00150       -0.69680       -1.16610
C          0.00230       -2.03760       -1.37880
N          0.02920       -2.26480       -2.66440
N          0.04260       -1.02500       -3.25920
N          0.02490       -0.08930       -2.38540
H          0.86720        1.84260       -0.58100
H         -0.88680        1.84420       -0.62290
H         -0.04680        1.93520        0.95960
H         -0.01500       -2.76350       -0.58400
