16
gdb 390	7.1409	1.93367	1.65547	2.6348	53.08	-0.2607	0.0735	0.3342	743.5937	0.141197	-308.75909	-308.751086	-308.750141	-308.790858	27.566
C         -0.01300        1.56770        0.01870
C         -0.02160        0.03630       -0.03650
C         -1.44270       -0.52480        0.00590
O         -2.03890       -0.13350        1.23400
C          0.71620       -0.49100       -1.26690
O          2.07000       -0.06940       -1.18820
H          1.01180        1.94460        0.01410
H         -0.53280        1.98960       -0.85120
H         -0.52100        1.92070        0.91840
H          0.50480       -0.35040        0.84610
H         -2.01840       -0.14060       -0.85350
H         -1.41300       -1.62320       -0.08360
H         -2.95310       -0.43060        1.23250
H          0.64880       -1.59090       -1.29940
H          0.23420       -0.10520       -2.18130
H          2.51810       -0.34550       -1.99250
