18
gdb 10196	3.31614	1.18388	0.91559	2.693	69.69	-0.2349	0.0129	0.2478	1282.7533	0.152419	-381.106669	-381.097003	-381.096059	-381.141685	32.707
C          0.51300        1.61980       -0.09430
N          0.83390        0.20140       -0.20020
C         -0.16370       -0.55610       -0.93340
C          0.14010       -2.06030       -0.86850
O         -0.88860       -2.73490       -1.54720
C         -0.85320       -4.14480       -1.40500
C          1.46690       -2.35050       -1.46680
N          2.49920       -2.56440       -1.94120
H          0.34170        2.11870       -1.06430
H         -0.39360        1.74610        0.50810
H          1.32810        2.13860        0.41750
H          1.73820        0.09400       -0.64950
H         -1.13970       -0.41290       -0.45740
H         -0.27420       -0.26820       -1.99340
H          0.18990       -2.36230        0.18920
H          0.06310       -4.57240       -1.83320
H         -0.92330       -4.44170       -0.34830
H         -1.71730       -4.53550       -1.94520
