12
gdb 982	3.85467	3.4526	1.83893	1.4602	51.67	-0.1938	0.0447	0.2385	636.6865	0.092694	-356.722498	-356.716277	-356.715333	-356.752206	23.334
N         -0.16660        1.41610       -0.04280
C         -0.04340        0.00440       -0.00890
C         -1.11530       -0.84190       -0.09470
O         -2.43800       -0.61320       -0.22100
N         -0.61440       -2.11370       -0.02800
C          0.75150       -1.98620        0.09660
N          1.12160       -0.73130        0.11090
H          0.36400        1.80830       -0.81620
H          0.21400        1.83410        0.80200
H         -2.52590        0.35060       -0.24450
H         -1.15470       -2.96140       -0.06460
H          1.39810       -2.84700        0.17020
