18
gdb 16988	3.78024	2.19175	2.08034	1.8325	71.5	-0.2427	0.0586	0.3013	756.7523	0.156425	-347.696427	-347.69046	-347.689515	-347.726028	25.461
C          0.05480        1.57820       -0.15040
O          1.51140        1.53280        0.13510
C          1.19850        0.34090        0.95050
C          1.38050       -1.21830        1.02480
C         -0.23660       -1.14570        1.10450
C          0.00990        0.04460        0.10600
C          0.59250       -0.72220       -1.11560
C          1.60750       -1.67110       -0.41540
H         -0.46070        2.19790        0.59230
H         -0.14300        1.93920       -1.16320
H          0.95040        0.70820        1.95430
H          1.95640       -1.69680        1.81910
H         -0.77260       -2.02730        0.74130
H         -0.60050       -0.85140        2.08910
H         -0.19910       -1.26120       -1.64510
H          1.08270       -0.05060       -1.82140
H          2.63620       -1.50130       -0.74420
H          1.37950       -2.73160       -0.55480
