13
gdb 3284	5.69921	2.59864	2.13169	4.1722	53.09	-0.2719	0.0076	0.2795	617.0056	0.103212	-344.46427	-344.458732	-344.457788	-344.493679	20.74
O         -0.19920        0.18090        0.40080
C         -0.02900        1.29840        0.03490
O         -0.97830        2.17640       -0.44830
C          0.02310        3.22000       -0.67350
C          0.14330        4.17480        0.53100
C          1.22420        3.23650        1.15460
C          1.11920        2.29370       -0.08970
H         -0.02530        3.59550       -1.69400
H          0.53240        5.15920        0.26110
H         -0.78460        4.30110        1.09140
H          2.20530        3.70670        1.23490
H          0.98340        2.77200        2.11230
H          2.02670        1.96640       -0.59200
