18
gdb 10803	4.33687	1.47843	1.17932	2.953	74.39	-0.2336	-0.0105	0.2231	1032.914	0.154105	-347.850619	-347.842826	-347.841882	-347.882829	29.382
C         -0.12720        1.57550        0.04890
C         -0.02290        0.07640       -0.02230
C         -0.03590       -0.58730       -1.18100
C          0.11930       -2.07970       -1.31810
C          0.35350       -2.80030        0.00450
O          0.98520       -3.82810        0.07470
C         -0.27930       -2.13130        1.21040
C          0.11980       -0.64680        1.29920
H          0.73970        2.00620        0.56700
H         -0.18580        2.02610       -0.94510
H         -1.01280        1.88510        0.61880
H         -0.13810       -0.03190       -2.11110
H         -0.78320       -2.51720       -1.77470
H          0.94120       -2.34070       -1.99490
H         -1.36930       -2.19220        1.08510
H         -0.00750       -2.68730        2.11040
H          1.15770       -0.55960        1.65240
H         -0.49000       -0.14980        2.06360
