18
gdb 13519	3.17141	1.63982	1.40545	3.2615	67.88	-0.2469	-0.0225	0.2244	969.5336	0.151817	-384.944754	-384.935994	-384.93505	-384.978951	30.832
C         -0.84620        1.23760        0.25710
C         -0.16460       -0.10770        0.10210
O          0.85320       -0.08750       -0.91740
C          1.87100       -0.52860        0.00460
C          0.87940       -0.58450        1.17930
C          1.13280        0.36930        2.33230
C          0.37640        0.08580        3.61620
O          1.88180        1.31470        2.22430
H         -0.12570        2.01790        0.51400
H         -1.32500        1.50780       -0.68920
H         -1.62250        1.19850        1.02960
H         -0.91030       -0.88660       -0.10960
H          2.30250       -1.49220       -0.28990
H          2.66240        0.21700        0.12890
H          0.65950       -1.58570        1.55570
H          0.73240       -0.85450        4.05410
H          0.52640        0.89800        4.32820
H         -0.69280       -0.04620        3.41580
