14
gdb 21523	3.67894	1.84651	1.26965	2.7444	60.24	-0.212	0.0103	0.2223	895.5735	0.108189	-415.84805	-415.840671	-415.839726	-415.879737	27.305
N         -0.41110        1.03260       -0.81360
C         -0.23020       -0.19130       -0.23400
C         -1.12440       -1.10110        0.28160
C         -2.59580       -0.90110        0.47420
O         -3.16430       -0.06320       -0.53590
C         -0.28350       -2.19340        0.61300
N          0.98230       -1.98410        0.34920
O          1.01270       -0.68250       -0.21070
H          0.35520        1.68370       -0.73810
H         -1.33610        1.41520       -0.68310
H         -3.10930       -1.87250        0.52440
H         -2.81610       -0.37970        1.41400
H         -3.01410       -0.49590       -1.38410
H         -0.56660       -3.14060        1.05410
