16
gdb 6334	3.61013	1.23837	1.07064	2.2408	62.92	-0.2505	-0.042	0.2085	1121.2392	0.126439	-420.903644	-420.89425	-420.893306	-420.938959	31.753
C          0.24830        0.89800        0.16470
C         -0.67740        0.03970       -0.66550
O         -0.48430       -0.22480       -1.82830
C         -1.88300       -0.55210        0.08280
C         -1.42990       -1.88710        0.68890
O         -0.84150       -1.94570        1.73790
C         -1.73200       -3.09530       -0.18120
O         -1.16460       -4.24660        0.37910
H          1.15040        1.13930       -0.39820
H         -0.26550        1.82320        0.45160
H          0.49780        0.37300        1.09340
H         -2.20010        0.10140        0.89800
H         -2.69320       -0.69770       -0.63490
H         -2.83160       -3.15820       -0.27560
H         -1.34930       -2.86050       -1.19000
H         -1.32060       -4.97990       -0.22300
