17
gdb 17292	3.126	2.47899	1.8878	3.069	67.13	-0.2286	0.0635	0.2921	774.7343	0.142823	-363.780866	-363.774173	-363.773229	-363.811251	26.831
C         -0.03160        1.54860       -0.02800
C          0.01790        0.03970        0.00320
C         -1.29830       -0.77940        0.06090
O         -0.86020       -1.48490        1.25200
C          0.39080       -0.78380        1.26040
C          1.56860       -1.42590        0.48070
N          0.99810       -2.09210       -0.71350
C          1.20980       -0.63220       -0.73520
H          0.95570        1.98080        0.17120
H         -0.35850        1.91280       -1.00960
H         -0.72680        1.93800        0.72270
H         -2.19080       -0.17550        0.26890
H         -1.48370       -1.46210       -0.77220
H          0.64560       -0.33950        2.22720
H          2.53520       -1.72610        0.86760
H          1.77770       -2.52050       -1.21140
H          1.84470       -0.16780       -1.48110
