21
gdb 7346	4.00017	1.03072	0.98981	3.3214	76.77	-0.2387	0.0383	0.2771	1334.2409	0.187116	-366.312856	-366.30257	-366.301626	-366.349775	35.962
C         -0.02760        1.40340        0.14150
C          0.04440       -0.02820       -0.39380
N         -1.25590       -0.67710       -0.44840
C         -1.60660       -1.71280        0.36940
O         -0.84260       -2.20110        1.18620
C         -3.03550       -2.23680        0.19320
C         -2.98200       -3.71190       -0.23360
C         -3.80040       -2.06560        1.51500
H          0.96910        1.85580        0.15800
H         -0.66900        2.03330       -0.48530
H         -0.42860        1.41600        1.15900
H          0.49620       -0.03590       -1.39380
H          0.66120       -0.65260        0.25580
H         -1.95010       -0.30640       -1.07650
H         -3.54450       -1.65870       -0.58950
H         -2.41880       -4.28970        0.50410
H         -3.99130       -4.12820       -0.31010
H         -2.49000       -3.83120       -1.20430
H         -3.27140       -2.58510        2.31830
H         -3.88840       -1.01070        1.79460
H         -4.80960       -2.48090        1.43270
