16
gdb 18939	3.24684	3.21224	2.48318	2.1922	61.62	-0.2545	0.0935	0.348	644.393	0.135116	-383.72931	-383.72442	-383.723476	-383.758011	21.633
C         -0.03370        1.58680        0.00490
C          1.51090        1.69000        0.04640
C          1.73550        1.06730        1.44640
C          1.25660       -0.31180        0.96180
O          2.31290       -0.57370        0.02330
C          1.90540        0.42700       -0.89290
O          0.65830       -0.08780       -1.32490
C          0.02320        0.05030       -0.04320
H         -0.50590        2.02840        0.88480
H         -0.50650        1.97000       -0.90000
H          1.98450        2.63950       -0.19270
H          2.77420        1.00670        1.77310
H          1.13180        1.54750        2.21920
H          1.13120       -1.13830        1.65710
H          2.60890        0.54890       -1.71240
H         -0.88370       -0.54670        0.01540
