15
gdb 9440	2.90546	1.76585	1.66338	2.3103	68.11	-0.2664	0.0151	0.2815	876.2656	0.117301	-362.62575	-362.617777	-362.616833	-362.65791	29.362
C         -0.09480        1.54490        0.10740
C         -0.02960        0.01350        0.01600
C          0.84220       -0.55470       -1.14590
O          1.82240       -1.04720       -0.18450
C          1.07910       -0.59930        0.88350
N          1.28100       -0.65770        2.11580
C         -1.33750       -0.60140        0.16180
C         -2.42580       -1.10030        0.26360
H          0.90040        1.97910       -0.02550
H         -0.76300        1.94530       -0.65980
H         -0.47240        1.84070        1.08860
H          0.39780       -1.37480       -1.71180
H          1.28350        0.19060       -1.81200
H          2.15730       -1.13410        2.33490
H         -3.38390       -1.54640        0.36910
