18
gdb 2035	4.27598	2.47731	2.19304	1.5782	67.38	-0.225	0.0879	0.3129	708.1312	0.160203	-289.802108	-289.795116	-289.794172	-289.832282	27.698
C         -0.03970        1.54810        0.08570
C          0.01400        0.02510        0.02340
C         -1.36340       -0.58430       -0.23350
C          1.11510       -0.60060       -0.92710
C          1.72700       -1.29190        0.29310
N          2.12900       -0.20460        1.22140
C          0.72480       -0.67840        1.20260
H          0.94400        1.95530        0.33030
H         -0.36040        1.96760       -0.87500
H         -0.75230        1.88550        0.84790
H         -1.76330       -0.25240       -1.19810
H         -1.32100       -1.67900       -0.24550
H         -2.07650       -0.28550        0.54390
H          0.68730       -1.29110       -1.65790
H          1.77690        0.10710       -1.43290
H          2.21000       -2.26040        0.33880
H          2.58000       -0.64600        2.02270
H          0.25980       -1.06940        2.10120
