11
gdb 1021	9.05071	1.94203	1.59894	6.359	58.94	-0.2362	-0.0066	0.2296	700.6498	0.081599	-302.355005	-302.349469	-302.348525	-302.384265	20.53
N          0.01890       -1.15100       -0.00380
C          0.00500        0.00750        0.00280
C         -0.00160        1.42380        0.01080
C         -1.12860        2.22850        0.03020
N         -0.70550        3.52170        0.03170
C          0.66930        3.57460        0.01380
C          1.13960        2.28830        0.00050
H         -2.17350        1.96710        0.04250
H         -1.31350        4.32240        0.04410
H          1.18900        4.51850        0.01220
H          2.17130        1.97710       -0.01490
