19
gdb 2528	3.38371	1.85447	1.29522	0.5756	73.21	-0.2591	0.0544	0.3135	986.2349	0.169347	-273.764093	-273.755127	-273.754183	-273.797181	32.356
C          0.74290       -0.21450        1.36010
C          0.04450       -0.07850        0.00610
C         -1.39690       -0.64050       -0.01760
C         -2.09240       -0.34620       -1.36810
C         -3.56600       -0.75440       -1.41070
C         -1.41160       -2.07210        0.28420
C         -1.40800       -3.25410        0.50840
H          1.75590        0.19740        1.32070
H          0.19550        0.32220        2.14320
H          0.81390       -1.26340        1.66180
H         -0.00540        0.97910       -0.28090
H          0.63020       -0.58670       -0.76930
H         -1.96810       -0.12560        0.77020
H         -1.99970        0.72920       -1.56330
H         -1.53950       -0.85860       -2.16460
H         -3.68180       -1.82670       -1.22910
H         -4.14620       -0.22180       -0.64870
H         -4.00730       -0.52490       -2.38540
H         -1.41290       -4.29480        0.71820
