17
gdb 16507	3.81572	2.46365	1.86823	1.5903	71.62	-0.2108	0.0058	0.2166	761.5508	0.143938	-326.690923	-326.684585	-326.683641	-326.720835	26.094
C         -0.01050        1.47860        0.03020
C          0.03440       -0.02830       -0.01340
C         -0.01820       -0.74460       -1.32330
C         -0.52660       -1.96160       -1.13060
C         -0.70780       -2.15360        0.35360
C          0.70740       -2.26700        1.01500
C          0.63690       -0.75820        1.16590
N         -0.85620       -0.74030        0.93620
H          0.89330        1.91020       -0.41370
H         -0.87720        1.85410       -0.52340
H         -0.08930        1.83440        1.06090
H          0.32600       -0.31110       -2.25370
H         -0.64550       -2.74920       -1.86390
H         -1.47580       -2.85400        0.67900
H          0.64470       -2.74400        1.99570
H          1.51770       -2.71750        0.43400
H          1.09660       -0.19570        1.97460
