19
gdb 3467	4.74845	2.37264	2.31129	0.1021	70.47	-0.2802	0.0921	0.3723	707.7274	0.174535	-273.779498	-273.773264	-273.772319	-273.80906	25.517
C         -0.15730        1.53650        0.00250
C          0.01370        0.02260        0.01790
C          1.12770       -0.59820       -0.88950
C          2.12810       -0.27600        0.25820
C          0.89520       -0.60360        1.14950
C          0.71190       -2.11060        0.88160
C          0.88960       -2.10640       -0.67770
H          0.78620        2.07850        0.11190
H         -0.61590        1.86310       -0.93770
H         -0.81670        1.85830        0.81650
H         -0.97300       -0.44450       -0.09580
H          1.29100       -0.25420       -1.91250
H          3.01210       -0.91420        0.35730
H          2.43000        0.77050        0.29540
H          0.82390       -0.26520        2.18490
H          1.46580       -2.71920        1.38950
H         -0.27360       -2.47120        1.19100
H         -0.00070       -2.46480       -1.20290
H          1.73890       -2.71280       -1.00600
