17
gdb 15063	2.43847	2.00169	1.39948	1.3828	69.8	-0.2445	0.0408	0.2853	945.4323	0.140536	-363.782148	-363.773546	-363.772602	-363.815345	31.446
O         -0.37040        1.65300       -0.26740
C          0.03550        0.34260        0.06200
C         -1.13250       -0.66680        0.06000
C         -2.08310       -0.41170        1.14820
C         -2.87590       -0.21390        2.03090
N         -1.70740       -0.68560       -1.29800
C         -2.98390       -1.36190       -1.50620
C         -2.89850        0.12060       -1.57960
H         -0.65820        1.63390       -1.18590
H          0.79690       -0.03300       -0.63650
H          0.47430        0.38990        1.06270
H         -0.69260       -1.66120        0.21760
H         -3.56270       -0.03360        2.82090
H         -3.04910       -1.96230       -2.40900
H         -3.48670       -1.77510       -0.63480
H         -3.34320        0.67980       -0.76140
H         -2.89680        0.62360       -2.54290
