22
gdb 12701	2.29842	2.12649	1.60095	1.4317	76.97	-0.2586	0.0679	0.3265	964.146	0.200835	-350.225323	-350.216374	-350.21543	-350.258691	34.104
C          0.62140        1.65880       -0.08010
C          0.15510        0.19940        0.02100
C          0.60440       -0.65330       -1.18910
C          1.97230       -1.27770       -0.79420
C          2.14640       -1.03450        0.72840
O          3.07710        0.01320        1.00720
C          0.75210       -0.59160        1.21470
C          0.73090        0.09180        2.58090
H          1.71030        1.72660       -0.13770
H          0.19450        2.13150       -0.97140
H          0.29860        2.24250        0.78790
H         -0.93900        0.19940        0.09530
H         -0.12550       -1.44950       -1.37000
H          0.66420       -0.06620       -2.11020
H          2.00450       -2.34520       -1.03220
H          2.80390       -0.80870       -1.32960
H          2.46820       -1.94840        1.24910
H          3.93670       -0.26100        0.67380
H          0.16380       -1.51800        1.28790
H          1.36520        0.98010        2.59330
H         -0.28820        0.38930        2.85060
H          1.09620       -0.58500        3.36070
