13
gdb 853	7.17716	2.00712	1.57227	1.1622	55.95	-0.1633	0.0709	0.2342	733.6699	0.102791	-340.657508	-340.65047	-340.649526	-340.687921	26.127
N          0.03040        1.42990       -0.14710
C          0.01490        0.02270       -0.05010
C         -1.08310       -0.79620        0.04720
N         -0.62140       -2.11320        0.01650
C          0.73130       -2.10950       -0.08240
O          1.36760       -3.30930       -0.11360
C          1.17970       -0.80970       -0.13050
H          0.78830        1.83630        0.38850
H         -0.83850        1.83970        0.17320
H         -2.13440       -0.57540        0.12140
H         -1.18190       -2.94370        0.07840
H          2.30980       -3.14610       -0.21470
H          2.20390       -0.48400       -0.23020
