15
gdb 13998	4.44704	1.43939	1.24979	1.764	68.14	-0.2477	0.0247	0.2723	966.0623	0.117839	-362.568295	-362.560811	-362.559867	-362.600289	27.652
C         -0.08930       -1.20570        0.04430
C         -0.04930       -0.00430        0.06290
C          0.01030        1.42990        0.03970
N          0.61420        2.11410        1.22070
C          1.30720        2.15590       -0.04670
C          2.70820        1.62620       -0.31440
O          2.96890        2.74580       -1.19780
C          1.68780        3.34640       -0.92280
H         -0.12790       -2.26700        0.04140
H         -0.84020        1.91870       -0.43260
H          0.12210        2.98870        1.39430
H          3.37030        1.62170        0.55950
H          2.76960        0.66320       -0.83340
H          1.09330        3.50100       -1.83200
H          1.78420        4.30160       -0.38680
