13
gdb 3488	5.03366	3.65976	3.17342	0.28	51.68	-0.2448	0.068	0.3127	497.444	0.103936	-344.393241	-344.388768	-344.387823	-344.421219	18.624
C          0.01870        1.53280        0.03310
C          1.55320        1.64110       -0.02990
O          1.93900        1.01190        1.22940
C          1.52410       -0.20880        0.62110
C          0.06720       -0.00520       -0.01870
O          0.62910       -0.23190       -1.34670
C          1.84750        0.26320       -0.79660
H         -0.36200        1.95680        0.96390
H         -0.51360        1.93310       -0.83150
H          2.04830        2.58990       -0.22360
H          1.81190       -1.12990        1.12340
H         -0.80970       -0.60920        0.20280
H          2.74960        0.10980       -1.38520
