20
gdb 16419	3.35498	2.06127	1.67096	1.4229	73.72	-0.2342	0.0844	0.3185	870.5039	0.179635	-348.995512	-348.988533	-348.987589	-349.026199	28.549
C         -0.59310        1.38100        0.04640
C          0.09680        0.01570       -0.01720
C          1.06880       -0.04180       -1.22100
O          2.13060       -0.97980       -1.06700
C          2.56910       -1.12620        0.27670
C          1.44470       -1.76510        1.13280
C          0.89030       -0.31830        1.26320
C          2.36390        0.16940        1.11210
H          0.13060        2.17950        0.24770
H         -1.09580        1.61930       -0.89750
H         -1.34660        1.40410        0.84020
H         -0.67410       -0.75650       -0.13990
H          0.54500       -0.31640       -2.14170
H          1.49060        0.96260       -1.37930
H          3.55310       -1.59710        0.23240
H          0.82060       -2.51610        0.64080
H          1.82150       -2.15330        2.08330
H          0.33630       -0.04670        2.16580
H          2.90760        0.10960        2.05790
H          2.56880        1.13480        0.64290
