14
gdb 1624	3.8867	2.10964	1.45031	3.9552	54.07	-0.2801	0.0095	0.2896	806.9968	0.111283	-361.716705	-361.708538	-361.707594	-361.748927	28.583
C         -0.03530        1.55460        0.08910
C          0.00970        0.03080        0.07190
O         -1.27020       -0.55950        0.19300
C          0.72090       -0.48990       -1.20600
O          2.03730        0.01140       -1.34450
C          0.70510       -1.96500       -1.24920
N          0.75790       -3.11890       -1.26910
H          0.96850        1.97500       -0.00380
H         -0.63450        1.93130       -0.75010
H         -0.48860        1.90540        1.01930
H          0.57650       -0.33480        0.93760
H         -1.86370       -0.13180       -0.43480
H          0.17140       -0.11910       -2.08060
H          2.59780       -0.42400       -0.69150
