21
gdb 11571	5.62374	0.97651	0.88438	2.0979	75.96	-0.2292	0.0681	0.2973	1363.6114	0.187278	-366.230166	-366.220755	-366.219811	-366.264518	34.284
C         -0.13650        1.61310       -0.10950
C         -0.06920        0.10000        0.11150
C         -1.43470       -0.58720       -0.01880
O         -2.03370       -0.32720       -1.28810
C         -1.34990       -2.09130        0.26240
N         -2.67070       -2.68300        0.40520
C         -3.31970       -3.15750       -0.80870
C         -2.77510       -4.12190        0.18570
H          0.85900        2.06500       -0.06790
H         -0.58070        1.84150       -1.08170
H         -0.75550        2.09310        0.65640
H          0.62520       -0.35330       -0.61230
H          0.34360       -0.11790        1.10430
H         -2.13310       -0.15100        0.70530
H         -1.42320       -0.64180       -1.96490
H         -0.75490       -2.57400       -0.54020
H         -0.80690       -2.25180        1.20200
H         -4.38720       -2.97080       -0.87810
H         -2.78240       -3.05300       -1.74880
H         -1.87130       -4.66360       -0.09130
H         -3.43440       -4.65680        0.86350
