17
gdb 4784	5.58553	1.24318	1.08986	1.6413	72.76	-0.1649	0.0578	0.2228	1103.8544	0.143839	-360.058998	-360.050512	-360.049568	-360.092199	31.169
C         -0.64900        1.00910        0.07990
N          0.53840        0.14970        0.17480
C          0.92780       -0.48150       -1.02200
C          1.86740       -0.16190       -1.98200
C          1.84950       -1.20090       -2.96130
N          2.71490       -1.28590       -4.07260
C          0.89210       -2.11330       -2.57640
N          0.33950       -1.66000       -1.38940
H         -0.54190        1.83190       -0.64400
H         -1.50970        0.40660       -0.22380
H         -0.86570        1.43160        1.06560
H          1.31730        0.67590        0.55070
H          2.49200        0.71920       -1.98990
H          2.85660       -0.38380       -4.51120
H          2.36860       -1.92800       -4.77480
H          0.55990       -3.02860       -3.03800
H         -0.29010       -2.17320       -0.79840
