9
gdb 8975	4.96467	0.91097	0.79305	2.5642	62.78	-0.3074	-0.1328	0.1746	1281.9697	0.046077	-396.174984	-396.167097	-396.166153	-396.208902	24.693
O         -0.40340        0.43540        0.85620
C         -0.00390        1.14900       -0.02910
C          1.22800        1.90940        0.06070
C          2.25220        2.55020        0.11940
C          3.46260        3.32580        0.20190
O          3.51430        4.45990        0.61190
C          4.66310        2.61610       -0.26720
N          5.60810        2.06320       -0.63860
H         -0.54710        1.28080       -0.98430
