13
gdb 13757	3.72975	1.42853	1.2281	5.2615	56.45	-0.2526	-0.0425	0.2101	964.7016	0.093291	-435.74582	-435.73769	-435.736746	-435.77958	27.817
N          0.17450        1.02970       -0.98570
C          0.00550        0.16290        0.05000
O          0.86920       -0.08040        0.86750
C         -1.37690       -0.45830        0.10290
O         -1.45040       -1.79630        0.55630
C         -2.02450       -0.80050        1.39860
C         -1.36070       -0.57080        2.72870
O         -1.94450       -0.02460        3.63100
H          1.07480        1.46780       -1.09580
H         -0.51370        1.15700       -1.70650
H         -2.04630       -0.22610       -0.72790
H         -3.11380       -0.77150        1.43080
H         -0.32850       -0.95090        2.80510
