15
gdb 5450	3.39263	1.94374	1.24527	1.4455	79.26	-0.1967	0.0045	0.2012	936.8952	0.118926	-325.543168	-325.535376	-325.534432	-325.575214	29.036
C         -0.00190        1.53740        0.07250
C          0.01580        0.04070        0.04380
C         -0.00010       -0.75240       -1.09950
N          0.02620       -2.07420       -0.68940
C          0.05750       -2.13430        0.67210
C          0.05200       -0.84330        1.15440
C         -0.03550       -0.39750       -2.46100
C         -0.06620       -0.10160       -3.63020
H          0.88940        1.94160        0.56630
H         -0.03700        1.94440       -0.94120
H         -0.87210        1.91950        0.61880
H          0.02180       -2.85870       -1.31740
H          0.08100       -3.08150        1.18690
H          0.07190       -0.55910        2.19580
H         -0.09370        0.16720       -4.65660
