12
gdb 4275	4.24853	1.89976	1.31384	6.8005	59.88	-0.2372	-0.0312	0.206	841.0971	0.085406	-414.7103	-414.70376	-414.702815	-414.741001	24.508
N          0.08600        1.37090        0.17040
C         -0.05030        0.01580        0.05940
C         -1.19620       -0.70320        0.02430
C         -1.15660       -2.15320       -0.02160
O         -2.13100       -2.87130       -0.05130
N          0.16200       -2.73020       -0.03730
C          1.16320       -1.96380       -0.01150
O          1.16560       -0.59360        0.03680
H          0.96210        1.75410       -0.15080
H         -0.72780        1.92090       -0.05370
H         -2.15830       -0.20780        0.03590
H          2.18850       -2.32300       -0.02480
