18
gdb 8480	2.85349	1.95781	1.59453	1.82	68.33	-0.2217	0.0614	0.2831	893.9433	0.15251	-384.909707	-384.901525	-384.900581	-384.941684	31.602
C         -0.04260        1.54700        0.08460
C         -0.03570        0.04700        0.08660
C          1.16620       -0.77320       -0.35930
C          0.63370       -1.00110        1.01000
O          1.42850       -0.89770        2.12910
C         -0.62910       -1.85960        0.99500
O         -1.24120       -1.89950        2.27930
C         -1.27730       -0.85840       -0.01090
H          0.92270        1.93990        0.42030
H         -0.23420        1.95150       -0.91730
H         -0.81480        1.94680        0.75290
H          1.08280       -1.52720       -1.14220
H          2.10120       -0.21980       -0.37400
H          0.84660       -1.09850        2.87560
H         -0.52250       -2.90430        0.68440
H         -1.64950       -1.04170        2.44250
H         -2.18500       -0.41010        0.40940
H         -1.51960       -1.25160       -1.00470
