12
gdb 405	6.13748	3.07004	2.45758	1.2031	52.54	-0.2424	0.035	0.2774	544.2268	0.094491	-269.176442	-269.170213	-269.169268	-269.205661	23.372
O         -0.05930        1.37360       -0.07310
C          0.00150       -0.02770       -0.01790
C         -0.46720       -0.70050        1.26330
C         -1.34700       -0.69600        0.03900
C          1.07270       -0.63000       -0.76980
C          1.99530       -1.10220       -1.38060
H          0.76770        1.71520        0.28570
H          0.01090       -1.62670        1.55960
H         -0.73190       -0.02890        2.07200
H         -2.19470       -0.02070        0.03130
H         -1.47990       -1.61800       -0.51330
H          2.79910       -1.52350       -1.93190
