15
gdb 6451	4.68593	1.40826	1.30988	1.9213	61.85	-0.2719	0.0058	0.2777	933.8744	0.118033	-399.792012	-399.784305	-399.783361	-399.823801	29.152
O          0.12890        1.40710       -0.12260
C          0.02970        0.00930       -0.02620
C          0.23250       -0.55960        1.41100
C         -1.31120       -0.56730        1.57540
O         -1.67800        0.67740        2.16070
C         -1.43050       -0.53960        0.01990
C         -1.93600       -1.68670        2.28610
N         -2.44780       -2.57000        2.82860
H         -0.40130        1.78090        0.59300
H          0.67310       -0.40090       -0.80590
H          0.64460       -1.57040        1.40900
H          0.76860        0.06550        2.12700
H         -2.63600        0.77440        2.09630
H         -2.21530        0.10210       -0.38760
H         -1.51480       -1.54410       -0.40150
