16
gdb 19886	4.00488	1.90165	1.57879	0.9897	73.97	-0.2137	0.0418	0.2554	837.6115	0.130192	-309.351509	-309.344766	-309.343822	-309.38203	27.455
C         -0.29270       -1.29530       -0.21650
C         -0.05800       -0.12740       -0.04260
C          0.09900        1.29740        0.08270
C          0.50360        2.14390        1.27930
C          1.73320        1.67000        2.10120
C          2.38560        0.40860        1.60550
C          2.58110        1.68750        0.83840
C          1.34880        2.16150        0.02060
H         -0.46790       -2.33410       -0.34870
H         -0.70300        1.81160       -0.44870
H         -0.16980        2.90840        1.64680
H          1.96250        2.09800        3.06820
H          3.25710        0.11870        2.18660
H          1.81950       -0.42390        1.21390
H          3.55730        2.13110        0.69300
H          1.42400        2.94150       -0.72700
