15
gdb 15963	3.26102	1.88402	1.38452	2.8294	65.43	-0.2505	0.0143	0.2647	890.4946	0.118719	-362.636997	-362.629721	-362.628777	-362.66892	26.723
N         -0.09550       -1.05720       -0.43640
C         -0.08210        0.07570       -0.20700
C         -0.04590        1.49920        0.07580
C          0.01460        1.94260        1.56570
O          1.21890        2.69730        1.33250
C          1.31670        2.20750       -0.00350
C          2.59620        1.72470       -0.59340
C          1.92450        2.99340       -1.11030
H         -0.82940        2.00810       -0.49080
H         -0.81250        2.57550        1.89980
H          0.16940        1.12150        2.27300
H          3.48690        1.84360        0.01370
H          2.57700        0.83320       -1.21180
H          1.45100        2.97190       -2.08660
H          2.37580        3.94290       -0.84290
