14
gdb 1154	3.32117	2.23872	1.88754	3.8233	63.13	-0.2851	0.0117	0.2967	752.5708	0.110973	-287.423372	-287.415424	-287.41448	-287.454826	28.717
C         -0.01950        1.54680       -0.00440
C         -0.00460       -0.00480        0.00490
C          0.75630       -0.53020        1.25100
C         -1.37920       -0.52100        0.00040
C         -2.50940       -0.92450        0.03130
C          0.69220       -0.47890       -1.20990
N          1.26350       -0.83300       -2.14940
H          1.00390        1.93060       -0.01170
H         -0.54530        1.92410       -0.88340
H         -0.53050        1.90570        0.89210
H          0.24920       -0.18170        2.15390
H          0.77910       -1.62140        1.25970
H          1.78260       -0.15420        1.24850
H         -3.50710       -1.28910        0.04450
