16
gdb 5629	3.23236	1.79168	1.16364	1.1702	67.49	-0.176	0.061	0.237	985.5229	0.13153	-379.938743	-379.930341	-379.929397	-379.972246	30.449
N          0.07440        1.42220        0.15070
C          0.03360        0.01330        0.02860
C         -1.07550       -0.80370       -0.00230
N         -0.62760       -2.10850       -0.03250
C          0.73950       -2.13010       -0.03410
C          1.18740       -0.82940        0.00880
C          2.61040       -0.37580        0.05700
O          3.45680       -1.51650        0.01790
H          0.69370        1.84280       -0.53410
H         -0.84300        1.83470        0.03080
H         -2.12750       -0.56790        0.00340
H         -1.21830       -2.91920       -0.05500
H          1.29640       -3.05100       -0.05920
H          2.82930        0.29850       -0.79200
H          2.78310        0.21730        0.97140
H          4.36440       -1.21420        0.10870
