15
gdb 11742	5.21663	1.36358	1.23481	3.5881	61.63	-0.2521	-0.0145	0.2375	962.4948	0.118244	-399.771436	-399.763968	-399.763024	-399.803484	27.504
O          0.19090        1.39180        0.10930
C          0.04580       -0.01060       -0.05400
C         -1.39490       -0.43300        0.00720
C         -2.05830       -0.95340        1.21300
N         -1.77460       -1.92020        0.10310
C         -2.80310       -1.65570       -0.89840
O         -3.55880       -2.42120       -1.40500
C         -2.42750       -0.17760       -1.09400
H         -0.10750        1.61920        0.99620
H          0.46000       -0.23960       -1.04130
H          0.62680       -0.57950        0.68680
H         -1.45480       -1.16240        2.09120
H         -3.09400       -0.69950        1.42620
H         -3.20150        0.57050       -0.90840
H         -1.99060       -0.00350       -2.08090
