17
gdb 2029	7.35255	1.74079	1.64499	1.9136	65.74	-0.2111	0.0771	0.2882	811.8362	0.14888	-305.838224	-305.831278	-305.830334	-305.868914	26.104
C         -0.03670        1.50940        0.06910
N         -0.03320        0.06540        0.10330
C         -1.26900       -0.62730        0.52560
C         -0.39950       -1.58530        1.34530
C         -0.76820       -2.47850        2.45670
N         -0.28000       -3.02590        1.17040
C          0.76480       -0.61360        1.15060
H          0.96390        1.87670       -0.18200
H         -0.72540        1.86230       -0.70610
H         -0.33880        1.97040        1.03020
H         -1.93220       -0.00940        1.15480
H         -1.85930       -1.05290       -0.29630
H         -0.09260       -2.61950        3.29670
H         -1.82270       -2.57760        2.70520
H         -1.06000       -3.38050        0.62120
H          1.71170       -1.04020        0.80390
H          0.94930        0.01300        2.03910
