17
gdb 12985	2.71112	2.58286	1.59953	2.0831	68.12	-0.2387	-0.0208	0.2179	837.5176	0.142571	-363.872141	-363.86475	-363.863806	-363.903603	28.142
C         -0.11880        1.52400        0.08060
C          0.01000        0.02640        0.00570
C         -0.81250       -0.90300        0.84890
N          0.60800       -0.74110        1.12290
C          1.43390       -1.83380        0.53990
C          1.11720       -1.94010       -0.96350
C          0.44830       -0.59610       -1.29170
O          0.34490       -0.09200       -2.38130
H          0.84180        2.00870       -0.11920
H         -0.83110        1.87380       -0.67210
H         -0.46280        1.83590        1.06940
H         -1.47850       -0.46160        1.58520
H         -1.16970       -1.83630        0.41820
H          2.48150       -1.55890        0.69360
H          1.24840       -2.75840        1.09350
H          2.00320       -2.07140       -1.58710
H          0.43000       -2.75600       -1.21290
