15
gdb 2903	6.6573	1.79542	1.50769	2.7834	62.84	-0.2471	-0.0192	0.2278	792.9438	0.125544	-308.540079	-308.533506	-308.532562	-308.57116	23.738
O          0.54310       -0.25760       -0.08400
C          0.23910        0.90390       -0.00300
C          1.20090        2.06610        0.02130
C          0.94770        3.06420       -1.15080
C          1.11970        4.41840       -0.50540
C          1.17920        4.34150        0.82110
C          1.05860        2.92090        1.31860
H         -0.83340        1.21300        0.06300
H          2.21310        1.66160       -0.04770
H          1.63580        2.88590       -1.98370
H         -0.06670        2.95800       -1.56450
H          1.15120        5.33440       -1.08470
H          1.26720        5.18450        1.49720
H          0.08470        2.76240        1.80620
H          1.81740        2.65120        2.06050
