18
gdb 16506	3.72757	2.38675	1.83049	0.3732	75.59	-0.2166	0.0207	0.2373	787.0143	0.155489	-310.644202	-310.637765	-310.636821	-310.674154	26.963
C         -0.02590        1.48110        0.03800
C         -0.00610       -0.02700       -0.03590
C          0.95220       -0.73450       -0.94060
C          0.51530       -1.97190       -1.19360
C         -0.71500       -2.23540       -0.35420
C         -0.23450       -2.29090        1.15320
C         -0.47190       -0.78950        1.23840
C         -1.28980       -0.81470       -0.03510
H          0.91130        1.87460        0.44810
H         -0.16670        1.92280       -0.95490
H         -0.84020        1.83560        0.67840
H          1.87610       -0.28850       -1.29030
H          1.03470       -2.73790       -1.75660
H         -1.38220       -3.03080       -0.68250
H         -0.96450       -2.82230        1.76990
H          0.76860       -2.68860        1.34190
H         -0.64250       -0.22630        2.14920
H         -2.27280       -0.41700       -0.26120
