19
gdb 2174	3.59653	2.5718	1.89484	1.3559	66.53	-0.2603	0.0684	0.3287	764.9941	0.172695	-310.938583	-310.930911	-310.929967	-310.970575	28.595
C         -0.19360        1.53910        0.03620
C          0.06560        0.03460        0.06270
C          0.83420       -0.51500       -1.15980
C          1.46560       -1.85590       -0.69200
C          1.25470       -1.90350        0.84650
C          0.91040       -0.46150        1.24730
O          2.07520        0.36000        1.31230
H          0.74980        2.09070        0.03180
H         -0.76260        1.82150       -0.85590
H         -0.76740        1.86080        0.91210
H         -0.89700       -0.49110        0.13280
H          0.18360       -0.63620       -2.03060
H          1.61830        0.19530       -1.43890
H          0.99750       -2.71770       -1.17580
H          2.52780       -1.89370       -0.94610
H          0.41380       -2.55780        1.10370
H          2.12710       -2.28280        1.38990
H          0.35780       -0.41240        2.19790
H          2.66550       -0.01600        1.97190
