19
gdb 12020	4.0509	1.22835	1.17234	2.7179	72.38	-0.242	0.0724	0.3144	1118.6554	0.163983	-365.019367	-365.010699	-365.009755	-365.052663	31.962
C         -0.38900        1.51100        0.23110
C         -0.01120        0.05130        0.06770
C         -1.16100       -0.84530       -0.35000
N          1.31260       -0.18660       -0.53560
C          1.08560       -0.56600        0.87300
C          1.88850        0.15230        1.90630
C          1.76190       -0.17170        3.33340
O          2.88370       -0.62980        2.58010
H          0.48450        2.13010        0.44180
H         -0.84870        1.88780       -0.68960
H         -1.11330        1.64010        1.04310
H         -1.55700       -0.53590       -1.32450
H         -0.84600       -1.89100       -0.42690
H         -1.98510       -0.79490        0.37040
H          1.29780       -1.01200       -1.13000
H          0.97470       -1.62620        1.09900
H          2.22440        1.14980        1.62820
H          1.97500        0.58950        4.08300
H          1.06260       -0.94610        3.64840
