16
gdb 14283	3.65436	1.85834	1.76039	3.9197	63.63	-0.2288	0.0534	0.2822	817.0171	0.132637	-379.955651	-379.948463	-379.947519	-379.986924	27.445
C         -0.05170        1.56830        0.01780
C          0.04110        0.06140        0.04470
C          1.32880       -0.71040       -0.21620
N          2.59220       -0.05820       -0.03550
C          2.72270        0.46910        1.24680
O          3.56520        1.24810        1.63070
N          1.68430       -0.07790        1.99640
C          0.71150       -0.72370        1.16550
H          0.84340        2.04650        0.42220
H         -0.18550        1.93120       -1.00690
H         -0.90660        1.91570        0.60780
H         -0.83200       -0.45350       -0.35030
H          1.32320       -1.58370       -0.85870
H          3.06790        0.42210       -0.78150
H          1.44260        0.38700        2.85610
H          0.23550       -1.60720        1.57580
