17
gdb 14835	3.0904	1.64465	1.13807	1.2102	68.05	-0.2444	0.0191	0.2635	1061.2581	0.140791	-400.975402	-400.966643	-400.965699	-401.009356	29.833
C          0.30830        1.32830       -0.10950
O         -0.15260        0.01400        0.16670
C          0.56200       -0.61110        1.18960
C          0.16630       -2.08290        1.40530
O          1.53540       -2.50790        1.12560
C          1.92530       -1.20600        0.84240
N          3.01100       -0.74760        0.42610
C          4.11170       -1.66100        0.14630
H          1.35890        1.32610       -0.42180
H         -0.31590        1.71720       -0.91660
H          0.20170        1.97860        0.77230
H          0.57790        0.00040        2.10430
H         -0.14110       -2.37630        2.41100
H         -0.52970       -2.45930        0.65260
H          3.85080       -2.72030        0.25120
H          4.47050       -1.48300       -0.87290
H          4.94430       -1.43620        0.82220
