19
gdb 11756	5.22181	1.36113	1.25422	1.6905	72.55	-0.2042	0.091	0.2952	1041.1077	0.164193	-364.996434	-364.988085	-364.987141	-365.029044	31.006
C         -0.27360        1.30370        0.05240
O          0.18440       -0.03660        0.12840
C          0.73370       -0.49080       -1.04660
C         -0.08720       -0.94370       -2.23070
C          0.84570       -1.91490       -1.51970
N          2.25420       -1.72860       -1.86650
C          2.68950       -2.05950       -3.21010
C          2.19720       -0.29020       -1.46880
H          0.54910        2.00380       -0.15120
H         -1.03550        1.42230       -0.73030
H         -0.71170        1.54620        1.02290
H         -1.13730       -1.10070       -2.00350
H          0.11620       -0.59120       -3.23860
H          0.49490       -2.83940       -1.07420
H          2.11900       -1.55720       -4.01200
H          3.74450       -1.79090       -3.32720
H          2.60100       -3.14040       -3.36180
H          2.37270        0.42730       -2.28160
H          2.87280       -0.07150       -0.63520
