14
gdb 1073	7.09786	1.87907	1.53531	2.786	59.22	-0.2053	0.0423	0.2476	767.5661	0.115456	-324.604156	-324.597624	-324.59668	-324.63484	24.158
O          0.27310        1.12470        0.67610
C          0.02820        0.04460       -0.21750
C         -1.37630       -0.47810       -0.13180
C         -2.17440       -0.45830        0.99300
N         -3.37590       -1.03500        0.66840
C         -3.36550       -1.42510       -0.64600
C         -2.13930       -1.09010       -1.17010
H         -0.42240        1.77340        0.52250
H          0.25570        0.32420       -1.25900
H          0.75770       -0.72490        0.06430
H         -1.97630       -0.08580        1.98450
H         -4.15430       -1.13710        1.29530
H         -4.22580       -1.89550       -1.09430
H         -1.81700       -1.26140       -2.18640
