18
gdb 18889	4.29677	2.28547	1.94193	0.0576	73.44	-0.2155	0.0899	0.3054	761.4002	0.155747	-310.630625	-310.624467	-310.623523	-310.660302	26.203
C         -0.01740        1.45840        0.07160
C         -0.04120       -0.04730        0.01240
C         -1.27390       -0.80340       -0.45850
C         -0.76200       -2.22230       -0.32120
C          0.73160       -2.27750       -0.58950
C          0.21710       -2.32560        0.83500
C          0.69570       -0.86990        1.05860
C          1.21150       -0.82190       -0.36850
H          0.94870        1.82600        0.43280
H         -0.19020        1.89830       -0.91740
H         -0.79100        1.84240        0.74660
H         -2.14460       -0.60830        0.17950
H         -1.54060       -0.55210       -1.49230
H         -1.37430       -3.08080       -0.57130
H          1.22380       -3.04270       -1.17390
H          0.23930       -3.13460        1.55200
H          1.12440       -0.45650        1.96170
H          2.10930       -0.36480       -0.76280
