15
gdb 15542	2.97736	2.12413	1.43844	3.5537	66.37	-0.2322	0.0018	0.234	866.2825	0.120336	-358.860117	-358.852514	-358.85157	-358.892387	26.696
C          0.06300        1.39160        0.09380
N         -0.16570       -0.03820        0.05160
C          0.03490       -0.82680       -1.06830
N          0.14100       -2.08630       -0.90430
C          0.01870       -2.31990        0.54070
C          0.06640       -0.89960        1.21310
C          1.36080       -0.61570        1.86250
N          2.37360       -0.38220        2.36860
H          1.08580        1.64580        0.40390
H         -0.11300        1.80490       -0.90220
H         -0.63710        1.87020        0.78640
H          0.05520       -0.34170       -2.04020
H         -0.94080       -2.80340        0.75620
H          0.81360       -2.97350        0.90550
H         -0.71770       -0.77110        1.96640
