15
gdb 1699	4.49069	2.17369	1.909	4.7968	61.06	-0.2479	0.0224	0.2702	724.2185	0.125766	-304.691568	-304.684578	-304.683634	-304.722247	25.754
C         -0.12430        1.57270        0.00100
C         -0.01530        0.04290       -0.01740
C          0.78420       -0.52180       -1.23750
C          1.96920       -0.68760       -0.25600
N          1.02450       -0.52950        0.87520
C         -1.34350       -0.55320        0.19690
N         -2.39390       -1.01160        0.34690
H          0.85440        2.01880       -0.20060
H         -0.82970        1.92510       -0.75760
H         -0.47510        1.92210        0.97700
H          0.38720       -1.46960       -1.60010
H          0.91180        0.16740       -2.07260
H          2.48840       -1.65020       -0.26590
H          2.71480        0.11250       -0.34800
H          1.31820        0.08180        1.62990
