12
gdb 3749	7.43829	2.21865	1.72754	3.0677	51.91	-0.2323	0.0118	0.2441	682.1995	0.092289	-356.723059	-356.716928	-356.715984	-356.753048	21.817
C         -0.02140        1.41090        0.03800
N          0.00790       -0.03260       -0.00230
C         -0.16860       -0.86570       -1.03930
N         -0.06180       -2.12690       -0.64970
C          0.18810       -1.98940        0.67870
O          0.36990       -3.03910        1.49020
N          0.24350       -0.75010        1.13580
H          0.94010        1.79820        0.38480
H         -0.22240        1.78570       -0.96740
H         -0.80630        1.75350        0.71730
H         -0.36900       -0.52160       -2.04310
H          0.28510       -3.82730        0.94030
