9
gdb 751	10.19566	3.95813	2.90382	4.7538	40.22	-0.3198	-0.0474	0.2723	426.1476	0.062337	-313.537245	-313.532152	-313.531208	-313.567192	15.918
C         -0.01150        1.45830        0.00490
N          0.00520        0.00590       -0.00060
N          0.29160       -0.72970       -1.06180
N          0.19640       -1.95980       -0.65580
N         -0.14640       -1.96660        0.64620
N         -0.26650       -0.74170        1.05840
H          0.97300        1.83490       -0.27710
H         -0.75990        1.81760       -0.70320
H         -0.26340        1.77520        1.01550
