16
gdb 16556	3.11046	2.77112	2.26476	2.2448	62.98	-0.2521	-0.0007	0.2514	694.8175	0.133897	-383.740073	-383.734366	-383.733422	-383.7695	23.805
C         -0.00200        1.40150        0.08890
C          1.43160        1.97360       -0.00920
C          2.19280        1.21490       -1.11550
O          2.15160       -0.16430       -0.71880
C          0.82310       -0.52850       -1.03060
O         -0.05780       -0.02410       -0.03990
C          0.59320        0.15190       -2.37950
C          1.39810        1.20930       -2.41650
H         -0.44620        1.62800        1.06150
H         -0.63040        1.86630       -0.68200
H          1.37850        3.05120       -0.20230
H          1.97400        1.82160        0.92890
H          3.23570        1.52670       -1.20720
H          0.72480       -1.61420       -0.99770
H         -0.17460       -0.13690       -3.08410
H          1.44610        1.98890       -3.16550
