14
gdb 8379	5.26884	1.36162	1.25274	4.7512	58.66	-0.2727	0.01	0.2826	947.8131	0.105884	-419.675763	-419.668574	-419.66763	-419.70724	26.856
O          0.05170        1.44370        0.20850
C          0.05420        0.05620        0.07470
C         -0.53270       -0.82570        1.17760
C         -1.27410       -0.57710       -0.09310
C         -2.62300        0.06070       -0.36740
C         -2.75200       -1.08740       -1.37420
O         -3.53760       -1.49420       -2.16470
O         -1.51310       -1.61760       -1.07100
H          0.75110        1.68970        0.82350
H          0.87690       -0.37070       -0.49880
H         -0.08520       -1.80230        1.32750
H         -0.90630       -0.33770        2.07230
H         -3.35410        0.02980        0.44210
H         -2.59690        1.05690       -0.81130
