20
gdb 10529	2.7946	1.53915	1.16	2.9135	72.16	-0.2476	0.0736	0.3213	1110.9063	0.175926	-386.112462	-386.103292	-386.102348	-386.146406	33.278
C         -0.06860        1.41530        0.01730
O         -0.04170        0.01430        0.17480
C         -1.27050       -0.61270       -0.17630
C         -1.10910       -2.10970       -0.07560
C         -0.01930       -2.68990       -0.96160
O          1.28640       -2.39250       -0.50390
C         -1.35150       -2.76440        1.26080
C         -2.36330       -2.91960        0.15430
H          0.91120        1.79800        0.31140
H         -0.26840        1.70390       -1.02610
H         -0.83770        1.87580        0.65580
H         -2.07450       -0.25970        0.49010
H         -1.54600       -0.32550       -1.20590
H         -0.10140       -3.78260       -0.98280
H         -0.17070       -2.33490       -1.99670
H          1.27900       -1.45450       -0.27200
H         -0.73180       -3.61590        1.51860
H         -1.60780       -2.12970        2.10250
H         -3.30740       -2.39110        0.24240
H         -2.44210       -3.87960       -0.34470
