14
gdb 16940	3.80353	2.22846	2.02063	3.7223	55.45	-0.2638	0.0038	0.2676	709.5193	0.110102	-419.722311	-419.716645	-419.715701	-419.752074	22.349
O         -0.02480        0.00770       -0.00050
C          0.00970        1.20010       -0.01160
O         -1.09520        2.01030        0.01620
C         -0.55960        3.35690        0.06120
C         -0.04000        3.59940        1.49100
C          1.26060        2.74070        1.45380
C          1.18480        2.18470        0.00470
O          0.60930        3.28390       -0.72020
H         -1.28710        4.04580       -0.36120
H          0.17110        4.65920        1.64640
H         -0.76200        3.26930        2.23920
H          2.15500        3.35570        1.56570
H          1.28460        1.94850        2.20420
H          2.10150        1.82990       -0.45650
