20
gdb 11524	4.621	0.99995	0.87773	2.8111	76.09	-0.2441	-0.018	0.2261	1327.0073	0.175255	-349.004612	-348.995412	-348.994468	-349.039326	32.865
C         -0.09410        1.57870       -0.08570
C          0.00600        0.04700        0.00270
C         -1.37250       -0.64850        0.11440
C         -2.15200       -0.28440        1.36210
C         -3.16610        0.83450        1.36040
C         -3.62400       -0.59960        1.44820
C          0.71070       -0.48290       -1.23010
O          1.70280       -1.16440       -1.23070
H          0.89890        2.03470       -0.14590
H         -0.66030        1.88600       -0.97290
H         -0.60290        1.98490        0.79090
H          0.62020       -0.23860        0.86410
H         -1.97560       -0.40920       -0.77260
H         -1.21300       -1.73460        0.09520
H         -1.59160       -0.41140        2.28560
H         -3.25130        1.45930        2.24280
H         -3.33800        1.36170        0.42770
H         -4.09910       -1.03320        0.57400
H         -4.02060       -0.95930        2.39100
H          0.21750       -0.19040       -2.19000
