21
gdb 9914	4.56418	1.04954	0.9312	2.4932	76.02	-0.2341	0.0821	0.3162	1331.6317	0.187373	-366.236909	-366.227361	-366.226417	-366.271545	34.218
C          0.44480        0.69400        1.14860
C         -0.11680        0.02850       -0.09590
O         -1.21840       -0.77550        0.27940
C         -1.83810       -1.43190       -0.80380
C         -3.02550       -2.23760       -0.30680
C         -3.82530       -2.89150       -1.41190
C         -2.94720       -2.86250        1.03590
N         -3.81540       -1.68530        0.80450
H          1.30210        1.32230        0.88950
H         -0.31380        1.32170        1.62480
H          0.77200       -0.05790        1.87240
H         -0.43630        0.78540       -0.83150
H          0.65240       -0.59160       -0.58540
H         -2.18150       -0.69260       -1.54940
H         -1.12150       -2.09650       -1.31670
H         -3.21650       -3.61200       -1.97040
H         -4.68580       -3.41720       -0.99210
H         -4.20180       -2.14470       -2.12060
H         -3.47710       -3.79170        1.22930
H         -2.03840       -2.71680        1.61070
H         -3.32630       -0.86640        1.16150
