15
gdb 17604	3.86746	1.71327	1.23078	1.9968	64.52	-0.2442	-0.0314	0.2128	944.6069	0.119313	-395.988472	-395.980529	-395.979585	-396.021129	28.76
N         -0.04540        1.21460       -0.01150
C          0.06520       -0.11870       -0.20160
O          1.11030       -0.71810       -0.37430
C         -1.28960       -0.83260       -0.16670
N         -2.32470       -0.16170        0.16650
N         -1.25080       -2.14470       -0.59380
C         -0.43920       -3.19200       -0.01460
C         -1.93700       -3.23890        0.06420
H          0.78810        1.77410        0.04020
H         -0.95630        1.60220        0.17750
H         -3.16670       -0.74060        0.15320
H          0.09140       -3.81990       -0.72350
H          0.10820       -2.96200        0.89350
H         -2.39850       -3.03230        1.02820
H         -2.49920       -3.90560       -0.58320
