16
gdb 2916	6.11258	1.9454	1.5592	4.2189	62.02	-0.236	0.0297	0.2656	786.8302	0.139116	-325.818163	-325.811442	-325.810498	-325.849435	24.034
O          0.04330        0.00830        0.48020
C          0.06910        1.21220        0.31230
N          1.17310        1.91710       -0.02690
C          2.48310        1.27470       -0.17630
C          3.40510        2.42990       -0.60220
C          2.72440        3.67590       -0.00700
C          1.23170        3.36940       -0.19400
H         -0.82520        1.85880        0.42520
H          2.78930        0.82900        0.77780
H          2.43490        0.46410       -0.90890
H          4.43100        2.29220       -0.25440
H          3.43320        2.50610       -1.69460
H          2.95490        3.75940        1.06060
H          3.02470        4.60780       -0.49110
H          0.89830        3.66840       -1.19830
H          0.59150        3.87490        0.53480
