16
gdb 18668	3.22583	2.35184	1.52192	3.5602	66.24	-0.2517	0.0123	0.264	826.652	0.133659	-379.90841	-379.901811	-379.900867	-379.93928	25.573
N         -0.11960        1.27630        0.11370
C         -0.02840        0.02230       -0.03170
O          1.17370       -0.62370       -0.09020
C          1.23730       -1.80500       -0.90530
C          0.25950       -2.88610       -0.45410
C         -1.13600       -2.29950       -0.28780
N         -1.42080       -1.76510        1.04680
C         -1.25330       -0.82590       -0.08900
H          0.81500        1.69110        0.13670
H          1.04140       -1.52440       -1.94950
H          2.27320       -2.14390       -0.83470
H          0.25720       -3.69000       -1.19770
H          0.58350       -3.31120        0.50020
H         -1.94480       -2.79040       -0.82280
H         -2.41140       -1.84390        1.26260
H         -2.12970       -0.29910       -0.44890
