15
gdb 19135	3.37122	1.80168	1.35873	3.9039	65.52	-0.2953	0.0031	0.2984	908.1217	0.118427	-362.634998	-362.627577	-362.626632	-362.666891	27.334
N         -0.26340       -1.17570        0.73090
C         -0.17370       -0.06860        0.41210
C         -0.10790        1.33020        0.01170
C          0.71900        2.23910        0.83450
O          1.18390        1.75870       -0.42700
C         -1.28960        1.81580       -0.77620
C         -1.14750        3.01820       -1.67180
C         -1.30010        1.64440       -2.27520
H          0.44370        3.29120        0.86180
H          1.24640        1.85250        1.70340
H         -2.23430        1.68210       -0.25780
H         -1.98200        3.70760       -1.72380
H         -0.16690        3.47470       -1.73750
H         -0.42010        1.20600       -2.73220
H         -2.23800        1.37950       -2.74870
