13
gdb 11700	4.68232	1.57105	1.34686	3.1151	60.	-0.2656	-0.0569	0.2087	873.069	0.094281	-398.585525	-398.578631	-398.577687	-398.616904	25.055
O         -0.12520       -0.01060        0.03020
C         -0.01880        1.18210       -0.10760
C          1.25850        1.90950        0.05450
C          1.33830        3.36070        0.32390
N          1.67360        2.93030       -1.05110
C          3.01600        2.34070       -0.96430
O          3.97870        2.62840       -1.59640
C          2.63960        1.26420        0.06270
H         -0.88250        1.82740       -0.37780
H          0.41560        3.93170        0.36520
H          2.12980        3.72810        0.97310
H          3.19260        1.25250        1.00450
H          2.64600        0.26330       -0.37470
