11
gdb 2572	4.04354	2.49615	1.72216	2.4006	48.5	-0.2613	-0.0659	0.1954	682.2051	0.075381	-380.373644	-380.366854	-380.36591	-380.404757	22.782
O         -0.14880        0.24430        0.74570
C          0.17290        0.93720       -0.18330
C          1.31220        1.92570       -0.10370
C          1.55070        2.61160        1.19950
O          2.39400        1.57380        0.77120
C          1.72790        2.63720       -1.35180
O          1.03700        2.71250       -2.33550
H         -0.34150        0.90980       -1.16210
H          1.98060        3.61280        1.20200
H          0.86720        2.36280        2.00930
H          2.74150        3.08930       -1.28870
