17
gdb 13551	3.70458	1.40115	1.12784	2.4662	69.9	-0.2407	0.0222	0.2629	1058.781	0.142186	-360.010283	-360.001634	-360.00069	-360.043535	31.066
C         -0.44790        1.36490        0.00530
N          0.01500       -0.01480        0.05760
C          1.39580       -0.30240       -0.30510
C          0.92780       -0.44870        1.10260
C          1.43420        0.49140        2.18950
N          0.40330        0.67340        3.21570
C          2.71290       -0.02950        2.72560
N          3.68990       -0.44250        3.18630
H          0.34620        2.11830        0.13100
H         -0.91120        1.53550       -0.97100
H         -1.19790        1.52200        0.78440
H          1.56460       -1.17720       -0.92660
H          2.05370        0.54070       -0.51930
H          0.71790       -1.44890        1.48200
H          1.64750        1.47290        1.75430
H          0.17340       -0.22490        3.63280
H          0.75670        1.25830        3.96760
