15
gdb 8820	4.01433	1.34541	1.05032	3.9739	63.51	-0.2379	-0.0112	0.2267	1079.3263	0.11803	-395.986363	-395.977268	-395.976324	-396.020795	31.147
C         -0.27940        1.40450       -0.09810
N         -0.10880       -0.02930       -0.21940
C          0.80950       -0.56310       -1.06850
N          1.63490        0.15930       -1.72180
C          0.76980       -2.11090       -1.05290
O         -0.52660       -2.64370       -0.82910
C          1.37580       -2.66730       -2.27410
N          1.82080       -3.11640       -3.24100
H          0.67620        1.87340        0.15010
H         -0.63550        1.85710       -1.03200
H         -0.99830        1.60850        0.69800
H         -0.82950       -0.64720        0.11330
H          2.26120       -0.40570       -2.29120
H          1.36520       -2.44690       -0.19570
H         -1.05610       -2.49090       -1.62150
