15
gdb 11879	4.91648	1.5607	1.34446	4.2727	61.01	-0.265	0.01	0.275	899.5279	0.120303	-399.814812	-399.808075	-399.80713	-399.846026	25.399
O         -0.18190        0.04010        0.55460
C         -0.13360        1.20860        0.30860
C         -1.20270        2.08260       -0.34700
C         -0.72160        3.49100       -0.06800
C         -1.34540        4.72070       -0.59720
N         -1.43550        4.39660        0.84130
C          0.77470        3.33370        0.16710
O          0.95930        1.97070        0.58620
H         -1.21750        1.85220       -1.41900
H         -2.18940        1.84510        0.05600
H         -0.73380        5.58860       -0.83130
H         -2.23210        4.61540       -1.21740
H         -2.35840        4.02700        1.05880
H          1.36010        3.49880       -0.74530
H          1.13310        3.99490        0.95800
