10
gdb 896	6.9758	2.31012	1.73541	3.114	44.36	-0.2031	0.0458	0.2489	638.5325	0.066802	-396.498209	-396.491977	-396.491032	-396.528328	21.918
O          0.06410        1.34190        0.00790
C         -0.06600        0.01090        0.00120
C         -1.14470       -0.77970        0.00350
N         -0.62950       -2.09670       -0.00680
C          0.73370       -2.09090       -0.01480
O          1.53420       -2.98360       -0.02500
O          1.08610       -0.72880       -0.00980
H          1.00620        1.54990        0.00090
H         -2.19360       -0.55220        0.01100
H         -1.15920       -2.94940       -0.00860
