12
gdb 21631	3.51614	2.46535	1.44922	1.5375	60.33	-0.2286	-0.0468	0.1817	773.6075	0.087197	-410.889392	-410.882973	-410.882029	-410.919816	24.12
N          0.01060        1.32500        0.00730
C         -0.05110       -0.01320        0.00100
N         -1.18200       -0.67140        0.00470
C         -1.08690       -2.03160       -0.00260
N         -0.00920       -2.75960       -0.01290
N          1.14850       -2.04060       -0.01640
C          1.27640       -0.68190       -0.01040
O          2.34160       -0.08050       -0.01430
H          0.92430        1.74940        0.00360
H         -0.83000        1.87580        0.01500
H         -2.02170       -2.58130        0.00050
H          1.99730       -2.59030       -0.02450
