11
gdb 15482	3.12626	2.12175	1.48538	3.7113	50.91	-0.3044	-0.035	0.2693	794.2072	0.072754	-434.567836	-434.561213	-434.560268	-434.599283	22.753
O         -0.04950        0.00550       -0.20110
C         -0.01900        1.17970       -0.02150
O         -1.09850        1.96800        0.19340
C         -0.66770        3.30610        0.43320
O          0.64390        3.41300       -0.08280
C          1.21050        2.12360       -0.00460
C          2.01070        1.92620        1.21660
N          2.62810        1.78940        2.18290
H         -1.31600        3.99580       -0.10940
H         -0.69660        3.49860        1.51380
H          1.83280        1.94430       -0.88490
