20
gdb 6094	4.19413	1.00241	0.85857	2.9605	72.69	-0.2423	-0.01	0.2323	1374.7742	0.172598	-386.161316	-386.151033	-386.150089	-386.198001	35.451
C          0.55230        1.26300       -0.30070
C         -0.15900       -0.02010        0.13660
C         -0.10460       -1.10290       -0.93460
O          0.43300       -0.58410        1.30680
C          0.17730        0.10250        2.50520
C          0.62550       -0.71760        3.71800
C          1.06530       -2.14250        3.47350
O          0.60000       -0.20870        4.81400
H          1.60730        1.05870       -0.50990
H          0.09060        1.66190       -1.20930
H          0.49770        2.04110        0.46590
H         -1.21370        0.21500        0.36020
H          0.93490       -1.36300       -1.15850
H         -0.61770       -2.00550       -0.59290
H         -0.58060       -0.75780       -1.85690
H          0.68910        1.07460        2.56000
H         -0.90120        0.30410        2.62920
H          0.26050       -2.70740        2.99160
H          1.90620       -2.15890        2.77320
H          1.34350       -2.60620        4.42030
