10
gdb 3916	8.4623	1.98212	1.60596	1.0032	50.24	-0.2698	-0.0686	0.2013	681.5836	0.067405	-359.312853	-359.307358	-359.306414	-359.342422	18.999
O         -0.04930       -0.02770       -0.00120
C         -0.00270        1.18100        0.00790
C          1.24020        1.95490       -0.00020
C          2.52410        1.48080       -0.01830
O          3.39310        2.48360       -0.02030
N          2.69560        3.70200       -0.00300
C          1.43240        3.36950        0.00840
H         -0.92920        1.79450        0.02270
H          2.93100        0.48170       -0.03060
H          0.68510        4.15090        0.02280
