17
gdb 1755	5.37458	1.61439	1.4336	2.4027	61.35	-0.2572	0.0825	0.3397	903.0089	0.146021	-346.823548	-346.815393	-346.814449	-346.856022	28.623
C          0.13090        1.38580        0.05490
O          0.15900       -0.02070        0.07290
C          0.54250       -0.57810       -1.16380
C          0.54660       -2.08590       -1.04550
C         -0.70780       -2.71620       -0.48580
C          1.43150       -2.84360       -1.94160
O          1.78050       -2.64720       -0.57130
H          1.12200        1.81120       -0.16840
H         -0.58270        1.77140       -0.69120
H         -0.18070        1.71950        1.04750
H         -0.16170       -0.27010       -1.95820
H          1.54750       -0.23420       -1.45500
H         -1.57180       -2.48860       -1.11970
H         -0.59330       -3.80080       -0.42370
H         -0.91070       -2.32240        0.51290
H          1.16170       -3.86210       -2.21930
H          2.05850       -2.32150       -2.66450
