17
gdb 1348	4.2207	2.36765	2.28654	1.3834	65.66	-0.2297	0.0195	0.2492	704.2269	0.147403	-309.731369	-309.724077	-309.723132	-309.762326	27.428
C          0.09250        1.46490       -0.07060
C         -0.09000       -0.05570        0.04430
C         -1.57930       -0.43050        0.04070
O          0.54290       -0.68060       -1.09320
C          1.57520       -1.56740       -0.67950
C          1.58480       -1.48770        0.82110
C          0.64980       -0.63890        1.22700
H          1.15500        1.72140       -0.08540
H         -0.36550        1.82820       -0.99550
H         -0.37870        1.98160        0.77230
H         -2.05110       -0.08190       -0.88300
H         -1.69980       -1.51510        0.10400
H         -2.10150        0.02780        0.88730
H          1.36710       -2.58650       -1.04350
H          2.53700       -1.26100       -1.12150
H          2.26800       -2.05410        1.44170
H          0.41290       -0.36980        2.24900
