16
gdb 14436	4.26476	2.16474	1.8248	1.0338	68.04	-0.2113	0.0163	0.2275	752.6987	0.131955	-346.568449	-346.562282	-346.561338	-346.598177	25.808
O         -0.10810        1.39450       -0.06330
C         -0.00050        0.01650       -0.05860
C          0.75090       -0.81190       -1.09480
C         -0.21390       -2.01400       -0.73730
C          0.43720       -2.80360        0.38110
C          0.44150       -2.06020        1.49190
C         -0.29910       -0.79070        1.23900
C         -1.13090       -0.96770       -0.01360
H          0.64990        1.75980        0.40640
H          0.53330       -0.42220       -2.09230
H          1.82740       -0.97990       -0.98140
H         -0.61020       -2.57740       -1.58040
H          0.94540       -3.74810        0.23180
H          0.93020       -2.29690        2.42890
H         -0.69440       -0.18080        2.04340
H         -2.20290       -0.83520       -0.09250
