18
gdb 12014	3.23182	2.00409	1.75679	1.9428	66.31	-0.228	0.0668	0.2948	838.9731	0.153538	-384.925007	-384.917448	-384.916503	-384.956199	29.944
C         -0.02470        1.54250       -0.03440
C          0.01840        0.01540        0.01330
O         -1.30520       -0.52290        0.07380
C          0.81670       -0.60540       -1.16560
O          1.36510       -1.83440       -0.70630
C          1.51240       -1.74280        0.68760
C          2.24330       -0.55140        1.25010
C          0.72450       -0.58380        1.21990
H          0.97830        1.97330        0.03120
H         -0.47880        1.89370       -0.96990
H         -0.62300        1.92500        0.79700
H         -1.81120       -0.14580       -0.65370
H          0.17180       -0.81640       -2.02420
H          1.61430        0.07670       -1.49570
H          1.56870       -2.71660        1.15790
H          2.70910       -0.66760        2.22260
H          2.78260        0.10600        0.57620
H          0.15960       -0.62750        2.14260
