17
gdb 7992	3.666	1.75413	1.26086	4.7863	65.42	-0.2449	0.0569	0.3018	973.1491	0.142759	-401.060645	-401.052571	-401.051627	-401.093275	28.781
C         -0.15980        1.54960        0.05200
C          0.15180        0.06700       -0.01250
C          0.98740       -0.38080       -1.22880
N          1.84810       -1.37170       -0.62380
C          2.89440       -2.05270       -1.34920
C          1.91240       -1.20920        0.74180
O          2.66350       -1.74530        1.51160
O          0.95270       -0.31370        1.12260
H          0.76260        2.13760        0.03660
H         -0.77650        1.84330       -0.80380
H         -0.70690        1.78730        0.96770
H         -0.77580       -0.51780        0.03410
H          0.36470       -0.80420       -2.02400
H          1.56550        0.45400       -1.65830
H          3.57290       -1.34350       -1.84480
H          3.46460       -2.64450       -0.63180
H          2.47100       -2.71590       -2.11130
