10
gdb 21985	5.57739	1.70264	1.30443	4.6226	51.71	-0.3041	-0.1019	0.2023	817.5126	0.060603	-450.493176	-450.487223	-450.486279	-450.524101	20.802
O         -0.08250        0.00770        0.00380
N         -0.01900        1.23110        0.00710
O          0.99340        1.90530        0.00250
C         -1.30600        1.92100        0.01710
N         -1.34960        3.22950        0.02120
O         -2.69180        3.52210        0.03050
C         -3.40760        2.37990        0.03160
C         -2.58040        1.30530        0.02320
H         -4.47940        2.49950        0.03870
H         -2.80940        0.25510        0.02150
