20
gdb 13933	3.16743	1.83665	1.47557	1.4912	74.58	-0.2348	0.0773	0.3121	952.4255	0.177166	-348.984747	-348.976729	-348.975785	-349.01726	30.395
C         -0.70110        1.17880        0.09170
C          0.12340       -0.09050       -0.04300
C          1.47540       -0.07120       -0.81240
C          2.02720       -1.09610        0.21460
C          0.88610       -0.68220        1.17150
C          1.19950        0.15240        2.43550
C          0.55420       -1.02200        3.19370
O          0.23560       -1.69590        1.95930
H         -0.09430        2.01640        0.45340
H         -1.12450        1.47500       -0.87420
H         -1.53500        1.03940        0.78890
H         -0.50120       -0.90140       -0.43730
H          1.46250       -0.36410       -1.86410
H          1.97170        0.90090       -0.72820
H          1.87820       -2.12740       -0.11780
H          3.05530       -0.98050        0.56780
H          2.25900        0.32650        2.63220
H          0.65960        1.09760        2.51280
H          1.23610       -1.61250        3.81830
H         -0.34460       -0.78760        3.77620
