17
gdb 13493	3.10274	1.7002	1.43661	2.6625	64.59	-0.2402	-0.0306	0.2097	940.7194	0.140636	-400.987335	-400.9789	-400.977956	-401.020532	30.697
C          0.01980        1.28650        0.85580
C         -0.15290        0.37390       -0.35990
O          0.85200       -0.63010       -0.41070
C         -1.55800       -0.24660       -0.39750
N         -1.89420       -1.03890       -1.61390
C         -2.29230       -2.23740       -0.82880
C         -1.73320       -1.54200        0.41790
O         -1.45130       -1.87530        1.53170
H          1.03980        1.67840        0.88460
H         -0.67640        2.13110        0.82490
H         -0.16670        0.73060        1.78200
H         -0.02150        0.94900       -1.28400
H          0.88010       -1.05670        0.45390
H         -2.31120        0.50890       -0.12760
H         -2.64890       -0.64190       -2.16020
H         -3.37230       -2.42560       -0.74990
H         -1.79310       -3.16590       -1.12640
