13
gdb 16257	3.48073	1.9927	1.43782	2.5801	66.84	-0.2527	0.0065	0.2593	840.8391	0.094436	-361.394412	-361.387551	-361.386607	-361.425338	26.265
N          0.01260        1.22620        0.01480
C         -0.01960       -0.02130        0.06080
O          1.01090       -0.95560        0.19900
C          0.07930       -2.03910       -0.01760
C         -0.90890       -2.06880        1.08080
C         -1.09630       -1.06230       -0.08120
C         -2.25830       -1.00580       -0.89220
C         -3.24610       -0.95730       -1.57600
H          0.96440        1.58100        0.11870
H          0.37560       -2.83350       -0.68780
H         -1.63300       -2.87640        1.05860
H         -0.62940       -1.70600        2.06460
H         -4.11460       -0.90460       -2.18460
