17
gdb 17802	4.34606	1.63978	1.45797	1.6989	68.76	-0.2406	-0.022	0.2186	908.0073	0.14197	-363.794688	-363.787243	-363.786299	-363.827123	27.493
C         -1.20580       -0.14280        0.90700
C          0.06120        0.06410        0.10310
O          0.96860        0.77650        0.46950
C          0.11360       -0.67150       -1.22580
C          1.44710       -1.03930       -1.90580
C          1.58220       -2.09040       -0.78120
N          0.08850       -2.22280       -1.16010
C          0.60860       -2.13060       -2.60870
H         -2.07050        0.23590        0.34940
H         -1.37600       -1.21410        1.05770
H         -1.13270        0.37490        1.86400
H         -0.68660       -0.29220       -1.87540
H          2.20600       -0.37150       -2.32160
H          2.15460       -2.99650       -0.99550
H          1.75970       -1.74260        0.23700
H         -0.15510       -1.82140       -3.32790
H          1.12210       -3.03830       -2.93610
