17
gdb 9530	2.76721	1.90312	1.59518	4.3713	63.94	-0.2346	0.0109	0.2455	898.5033	0.141518	-401.010983	-401.00258	-401.001636	-401.043715	30.264
C         -0.12370        1.49470       -0.01050
N          0.09780        0.04730        0.01700
C          0.75790       -0.50880       -1.15840
C          2.17520       -0.00480       -1.44710
C          0.55220       -2.03790       -1.27490
O         -0.30620       -1.85010       -2.44750
C         -0.18160       -0.49050       -2.38490
O         -0.67910        0.32300       -3.09680
H          0.79520        2.10190       -0.02980
H         -0.71500        1.74960       -0.89310
H         -0.69700        1.77660        0.87700
H          0.63420       -0.20180        0.84320
H          2.83170       -0.21050       -0.59400
H          2.60140       -0.49000       -2.33080
H          2.17390        1.07310       -1.62800
H          1.43070       -2.63220       -1.53430
H         -0.01040       -2.48670       -0.45520
