15
gdb 5113	3.48298	2.09623	1.32795	2.1184	63.25	-0.1898	0.0553	0.245	879.2969	0.120304	-396.015958	-396.007916	-396.006972	-396.048488	28.855
C         -0.07190        1.47620        0.01320
N          0.02030        0.03150       -0.00380
C          0.01530       -0.80670       -1.13080
N         -0.12940       -0.24680       -2.41590
C          0.10210       -2.07620       -0.63390
N          0.16180       -2.06480        0.75150
C          0.11830       -0.79810        1.06370
O          0.16240       -0.27490        2.30520
H          0.90080        1.93930        0.21200
H         -0.42830        1.79880       -0.96600
H         -0.77310        1.79650        0.78720
H          0.75470       -0.14990       -2.90580
H         -0.74600       -0.80410       -2.99420
H          0.11910       -3.00250       -1.18810
H          0.22080       -1.02840        2.90600
