14
gdb 10379	2.79672	2.02507	1.45308	3.6844	62.47	-0.26	-0.059	0.201	865.5694	0.107116	-378.712422	-378.704884	-378.70394	-378.744522	26.726
O         -0.08160        0.01180        0.21850
C         -0.00660        1.16590       -0.10500
C          1.30910        1.95430       -0.02930
C          1.37770        2.78490        1.30410
C          2.31150        1.66100        1.81310
N          2.46360        1.16400        0.41900
C          1.48630        2.70250       -1.27720
N          1.58630        3.30090       -2.26090
H         -0.88420        1.74630       -0.45780
H          1.87050        3.74560        1.15870
H          0.43010        2.93310        1.82360
H          3.25180        1.97970        2.26970
H          1.80460        0.95990        2.48480
H          2.30200        0.16660        0.30680
