18
gdb 8435	2.76603	2.13502	1.80403	2.1995	67.45	-0.2237	0.0641	0.2878	842.7785	0.152156	-384.911301	-384.903196	-384.902252	-384.942893	31.937
C         -0.10250        1.59340        0.01480
C          0.06410        0.08220        0.02900
O         -1.20160       -0.57010       -0.08580
C          1.13670       -0.58810       -0.90430
C          1.72200       -1.32320        0.30750
C          2.18700       -0.30320        1.32860
C          0.73250       -0.59480        1.23300
O          0.01240       -1.00010        2.33190
H          0.85620        2.10110        0.15220
H         -0.51820        1.93220       -0.94300
H         -0.78060        1.90750        0.81410
H         -1.66580       -0.20550       -0.84600
H          0.65380       -1.24690       -1.62910
H          1.81960        0.09190       -1.42670
H          2.07890       -2.34510        0.32200
H          2.64840       -0.73050        2.21350
H          2.61380        0.65010        1.01990
H         -0.82870       -1.32860        1.98700
