15
gdb 7865	4.17529	1.27224	1.1755	2.8575	58.37	-0.2462	0.0443	0.2905	1038.7633	0.117379	-436.951175	-436.942741	-436.941796	-436.985293	30.144
N         -0.33050        1.23310       -0.06050
C         -0.05900       -0.10430       -0.08830
O          0.99180       -0.60450       -0.40110
O         -1.18250       -0.79800        0.27340
C         -1.08330       -2.21170        0.21910
C         -2.22990       -2.95280        0.84630
C         -2.10120       -2.87630       -0.66450
O         -2.98630       -2.08280       -1.39040
H          0.46560        1.84580       -0.10560
H         -1.14420        1.55370        0.43660
H         -0.06430       -2.56890        0.27890
H         -2.02010       -3.88420        1.36090
H         -3.01780       -2.34800        1.28200
H         -1.80640       -3.76970       -1.20740
H         -2.71540       -1.16540       -1.26430
