12
gdb 21377	5.54234	2.38776	1.6688	2.9309	60.57	-0.213	0.0031	0.216	694.9952	0.088427	-373.726007	-373.720669	-373.719725	-373.755213	20.968
N         -0.03260        1.34830        0.01010
C          1.28360        1.74730       -0.00050
N          2.13160        0.75080       -0.01440
N          1.31120       -0.34830       -0.01260
C          1.38900       -1.72780       -0.02110
C          0.06860       -2.12430       -0.01060
N         -0.82260       -1.05970        0.00420
C         -0.01440       -0.02950        0.00220
H         -0.84660        1.93610        0.02160
H          1.57890        2.78400        0.00240
H          2.32240       -2.26090       -0.03320
H         -0.29780       -3.13980       -0.01280
