15
gdb 21311	7.29344	1.10019	0.96762	3.9513	63.28	-0.2536	-0.0074	0.2462	1155.7001	0.118759	-399.77559	-399.767961	-399.767017	-399.808789	26.166
C         -0.27110        1.39930        0.32360
O         -0.32430       -0.00030        0.47580
C          0.94850       -0.58240        0.63560
C          0.77890       -2.05870        0.78810
C         -0.37450       -2.77640        0.78350
O         -0.11940       -4.08400        0.94830
N          1.25190       -4.26520        1.06940
C          1.76890       -3.06510        0.97340
H          0.30910        1.69040       -0.56590
H         -1.29800        1.75260        0.20750
H          0.17720        1.88790        1.20270
H          1.59050       -0.35470       -0.23390
H          1.46000       -0.15880        1.51830
H         -1.40920       -2.49660        0.67600
H          2.84240       -2.95250        1.03980
