13
gdb 1849	6.46026	2.15802	1.65078	3.127	55.58	-0.2441	-0.0093	0.2348	719.4311	0.102655	-340.697732	-340.691316	-340.690372	-340.727945	23.305
C         -0.01600        1.49230        0.01640
C         -0.00640        0.00130       -0.04020
N         -0.06010       -0.69730       -1.11160
C         -0.02440       -2.09940       -0.69430
C          0.06090       -2.10330        0.83800
O          0.11310       -3.01830        1.62080
N          0.06620       -0.74530        1.14070
H          0.89410        1.87040        0.49520
H         -0.07880        1.88770       -0.99730
H         -0.87010        1.85530        0.59880
H         -0.91980       -2.63520       -1.02880
H          0.83770       -2.61950       -1.12670
H          0.11570       -0.38240        2.07880
