18
gdb 16248	3.0407	2.06261	1.51574	2.2729	66.66	-0.2472	0.0749	0.3221	887.8053	0.153815	-384.925377	-384.917723	-384.916778	-384.958083	28.779
C          0.31100        1.42200       -0.36300
C         -0.10180        0.04870        0.17270
O         -0.02150       -0.94690       -0.84850
C          1.27030       -1.54130       -0.78420
C          1.60420       -1.63100        0.71190
C          0.78800       -0.48400        1.30670
C          1.18760        0.30070        2.47930
O          0.17720       -0.70740        2.57960
H          1.36790        1.44160       -0.64810
H         -0.28670        1.66650       -1.24510
H          0.14920        2.20110        0.38830
H         -1.14210        0.07770        0.51190
H          1.21310       -2.51320       -1.28000
H          2.01350       -0.92990       -1.31990
H          1.24090       -2.56900        1.14140
H          2.67430       -1.55160        0.91850
H          2.12770        0.07500        2.98250
H          0.83870        1.32550        2.60240
