13
gdb 3760	3.96556	3.57433	1.9084	3.6573	55.14	-0.2235	0.0286	0.2521	639.2559	0.104522	-336.843788	-336.837238	-336.836294	-336.874272	23.129
C         -0.01570        1.42410       -0.02770
N          0.00590       -0.01900        0.01600
N          0.05120       -0.76840       -1.13110
C          0.03130       -1.99750       -0.65570
N         -0.00440       -2.10910        0.70240
C         -0.01530       -0.84320        1.08710
N         -0.12020       -0.38980        2.39190
H          0.99320        1.85000        0.02520
H         -0.47660        1.73000       -0.96720
H         -0.61120        1.80160        0.80800
H          0.04680       -2.85540       -1.31170
H         -0.04070       -1.16140        3.04100
H          0.52200        0.35290        2.63520
