18
gdb 14882	3.94581	1.22818	1.01786	2.692	63.83	-0.2468	0.0613	0.3081	1142.3526	0.153344	-422.039264	-422.030526	-422.029582	-422.073303	30.845
O         -0.21280        1.52620       -0.32850
C         -0.00670        0.21680        0.18330
C         -1.33410       -0.50700        0.05700
C         -1.77770       -0.92830       -1.35860
O         -1.91930       -2.31110       -0.95420
C         -1.43420       -2.02000        0.38370
C         -0.18350       -2.84440        0.65560
O         -0.48280       -4.21780        0.49910
H          0.62760        1.99360       -0.31320
H          0.77630       -0.30820       -0.38450
H          0.31100        0.24340        1.23830
H         -2.09250        0.08180        0.57780
H         -2.72530       -0.51250       -1.71650
H         -1.01620       -0.80220       -2.13860
H         -2.19710       -2.27870        1.12890
H          0.63080       -2.53730       -0.01900
H          0.15900       -2.70270        1.68690
H         -0.91250       -4.29220       -0.36270
