15
gdb 16545	3.07449	2.36864	1.68726	2.2596	60.63	-0.2428	-0.0159	0.2268	783.8533	0.119585	-399.777434	-399.770392	-399.769448	-399.808805	25.98
O          0.18620        1.35040        0.40780
C          0.04690       -0.02640        0.17850
C         -1.38880       -0.59410        0.00580
C         -2.45370        0.28050       -0.70290
C         -2.14170       -0.49970       -2.01580
N         -0.98570       -1.18360       -1.33390
C          0.20830       -0.43160       -1.30730
O          0.93820       -0.05610       -2.18240
H          0.81820        1.68150       -0.24280
H          0.64140       -0.61860        0.88780
H         -1.73950       -1.29680        0.76280
H         -3.47110        0.18710       -0.32110
H         -2.17350        1.33570       -0.73230
H         -2.90700       -1.22210       -2.30660
H         -1.83600        0.07810       -2.89100
