13
gdb 11205	4.8291	1.44989	1.23602	1.0086	56.57	-0.2614	-0.0524	0.209	929.8581	0.094657	-435.74531	-435.738037	-435.737093	-435.778022	24.934
N         -0.21980        1.19240        0.37840
C         -0.07550        0.00120        0.00720
C         -1.13860       -1.07390        0.00420
O         -0.52790       -2.18230       -0.64710
C          0.85810       -1.94690       -0.72730
O          1.07600       -0.56480       -0.47740
C          1.58830       -2.76350        0.34550
O          2.42550       -3.58540        0.09630
H          0.64940        1.72010        0.29430
H         -1.44510       -1.32450        1.02710
H         -2.02160       -0.76180       -0.55940
H          1.23220       -2.21040       -1.72160
H          1.25730       -2.53410        1.38340
