18
gdb 13853	3.92361	1.54256	1.33269	3.1321	67.76	-0.2308	-0.01	0.2208	985.1733	0.1536	-384.966453	-384.958201	-384.957256	-385.000113	29.342
C         -0.04360        1.36690        0.16110
C         -0.08920       -0.13870       -0.02680
O         -0.08920       -0.91320        0.89960
C         -0.10430       -0.63000       -1.48140
C          1.36150       -0.74280       -2.01860
C          1.44540       -2.20820       -2.49230
C          0.35370       -2.88140       -1.65630
O         -0.68780       -1.91260       -1.59040
H          0.71220        1.82300       -0.48800
H         -1.00980        1.79880       -0.12630
H          0.16250        1.60870        1.20430
H         -0.70240        0.05980       -2.08940
H          1.55920       -0.02620       -2.81790
H          2.08410       -0.55490       -1.21860
H          1.19860       -2.28110       -3.55560
H          2.43510       -2.64530       -2.33940
H         -0.06090       -3.78380       -2.11300
H          0.71400       -3.12630       -0.64810
