17
gdb 12081	3.81374	1.64036	1.50466	1.0863	63.89	-0.2289	0.0617	0.2905	893.9988	0.141994	-400.940146	-400.932409	-400.931464	-400.971859	29.861
O         -0.06390        1.40670       -0.05920
C          0.03210       -0.01530        0.04900
C         -1.39620       -0.53080       -0.01710
O         -2.17390        0.07270        0.99320
C         -2.11030       -0.51950       -1.42960
C         -2.27820       -2.03670       -1.30180
N         -0.90760       -2.59350       -1.17990
C         -1.59730       -2.05090        0.01920
H          0.80010        1.78780        0.11800
H          0.62900       -0.44820       -0.76110
H          0.47480       -0.30630        1.01370
H         -1.91680        1.00440        0.98980
H         -3.05330        0.02340       -1.35210
H         -1.53420       -0.17320       -2.29090
H         -3.09150       -2.65200       -1.66570
H         -0.99670       -3.60830       -1.13250
H         -1.76880       -2.65150        0.90400
