21
gdb 11563	4.81725	0.9371	0.88585	1.2073	75.62	-0.2343	0.0737	0.308	1367.7496	0.187562	-366.225915	-366.21648	-366.215536	-366.260429	34.177
C         -0.22130        1.47580       -0.06240
C          0.08990       -0.02320        0.02370
C          0.78030       -0.53760       -1.24780
O         -0.00410       -0.38650       -2.42010
C          0.95050       -0.34980        1.25180
N          0.26110       -0.01430        2.49370
C         -0.55980       -1.06700        3.08260
C          0.73880       -0.67840        3.69930
H          0.69280        2.05590       -0.24520
H         -0.93040        1.69180       -0.86840
H         -0.65710        1.82990        0.87410
H         -0.85750       -0.57100        0.12010
H          1.76130       -0.04450       -1.36040
H          0.96920       -1.61320       -1.15950
H         -0.08210        0.55420       -2.60370
H          1.24230       -1.41700        1.22600
H          1.87970        0.23500        1.22030
H         -1.50020       -0.74810        3.52280
H         -0.59830       -2.02950        2.57360
H          1.56330       -1.38350        3.60080
H          0.76620       -0.06940        4.59850
