15
gdb 4825	6.55608	1.27827	1.08413	3.3044	64.21	-0.2361	0.0016	0.2377	1058.0773	0.11875	-399.836626	-399.828703	-399.827758	-399.869488	27.587
C         -0.04170        1.41380        0.34100
C         -0.02930       -0.01680       -0.04940
C         -0.88480       -0.84840       -0.68910
N         -0.32290       -2.12030       -0.77250
C          0.82500       -2.00120       -0.19010
C          1.82910       -3.09510       -0.01270
O          1.35870       -4.29590       -0.57010
O          1.08570       -0.76100        0.27820
H          0.78590        1.96370       -0.12070
H         -0.97910        1.87350        0.02010
H          0.04620        1.53510        1.42630
H         -1.85940       -0.62880       -1.09480
H          2.77880       -2.79550       -0.48360
H          2.04010       -3.22320        1.06070
H          0.48390       -4.10610       -0.93690
