12
gdb 14813	2.61849	2.19767	1.3356	5.3571	58.52	-0.3068	-0.0259	0.2809	861.9007	0.084142	-377.511548	-377.504351	-377.503407	-377.543843	24.569
N         -0.31200       -1.15860       -0.31190
C         -0.19740       -0.02020       -0.15140
C         -0.07360        1.40760        0.06570
C          0.08420        1.92370        1.52180
O          1.24550        2.69990        1.15420
C          1.31140        2.10910       -0.15150
C          2.47250        1.23180       -0.32370
N          3.39590        0.55280       -0.46630
H         -0.85950        1.93180       -0.48090
H         -0.72780        2.55170        1.89600
H          0.32520        1.14210        2.24890
H          1.31570        2.86560       -0.94280
