19
gdb 13599	4.13078	1.30702	1.10758	3.0974	73.28	-0.2407	0.0159	0.2566	1140.8805	0.163654	-365.075094	-365.065881	-365.064937	-365.109748	32.483
C         -0.33950        1.41020       -0.18200
C         -0.04190       -0.08750       -0.15690
C          0.70510       -0.55960       -1.39880
O          0.83830        0.11670       -2.39720
N          1.30380       -1.80620       -1.26900
C          0.69580       -3.06450       -0.89230
C          1.32230       -2.86710       -2.24900
C          0.46990       -2.79030       -3.49370
H          0.58620        1.99210       -0.19170
H         -0.90020        1.67750       -1.08040
H         -0.92150        1.70300        0.69640
H          0.53810       -0.37060        0.72880
H         -0.97630       -0.66260       -0.09210
H          1.20810       -3.63720       -0.12280
H         -0.39080       -3.11630       -0.85270
H          2.31050       -3.30050       -2.39870
H         -0.54160       -2.44340       -3.26440
H          0.90200       -2.09240       -4.21510
H          0.39860       -3.77860       -3.95920
