15
gdb 9589	3.00738	1.74302	1.30155	3.2974	69.34	-0.2562	-0.005	0.2512	952.5489	0.116036	-362.623563	-362.615204	-362.61426	-362.656262	30.097
C         -0.24070        1.60610       -0.14580
C          0.10920        0.13180       -0.06500
C          0.95170       -0.50890       -1.15120
N          1.53070       -0.18310        0.12720
C          2.02610       -1.14210        1.00390
O          2.70280       -2.08250        0.67380
C         -0.86300       -0.70260        0.60180
C         -1.68580       -1.36380        1.17710
H          0.55540        2.15250       -0.65670
H         -1.17810        1.74420       -0.69200
H         -0.36460        2.02650        0.85630
H          0.79300       -1.56120       -1.36770
H          1.26600        0.10500       -1.99110
H          1.78550       -0.89850        2.05460
H         -2.40820       -1.96200        1.67610
