21
gdb 2358	4.61986	1.78374	1.38999	0.0088	74.52	-0.2829	0.0856	0.3685	946.9227	0.194943	-274.98588	-274.977749	-274.976805	-275.017903	30.648
C          0.05360        1.50640        0.09140
C         -0.07720       -0.02020        0.00400
C         -1.55030       -0.44850       -0.03930
C          0.69310       -0.57200       -1.19440
C          2.24370       -0.43790       -1.23420
C          2.31450       -1.85800       -1.85630
C          0.87080       -2.11130       -1.34610
H          1.10190        1.81690        0.14800
H         -0.38900        1.98700       -0.78960
H         -0.46020        1.89870        0.97540
H          0.37440       -0.45130        0.91060
H         -2.05010       -0.03770       -0.92500
H         -1.65060       -1.53810       -0.07630
H         -2.09330       -0.09190        0.84230
H          0.26540       -0.15930       -2.11820
H          2.67480        0.39130       -1.80070
H          2.66340       -0.42070       -0.22220
H          2.35620       -1.81920       -2.94880
H          3.10270       -2.52820       -1.50520
H          0.87070       -2.60580       -0.36830
H          0.18190       -2.64720       -2.00390
