18
gdb 18410	3.17464	2.1399	1.43637	1.5244	66.69	-0.2495	0.0769	0.3264	880.9306	0.155972	-384.920813	-384.913981	-384.913037	-384.951622	27.032
C         -0.01570        1.53310        0.06040
C          1.43210        2.03910       -0.00530
O          2.10070        1.84550       -1.24040
C          2.44090        0.50030       -1.52810
C          1.30000       -0.25070       -2.19680
O          0.97850       -1.55510       -1.69540
C          0.04660       -0.49140       -1.47170
C         -0.15730        0.00470       -0.05040
H         -0.43030        1.86890        1.01950
H         -0.60410        2.02320       -0.72500
H          1.44490        3.12130        0.16100
H          2.01450        1.57110        0.80740
H          3.30780        0.54060       -2.19570
H          2.74010       -0.03920       -0.61800
H          1.25440       -0.16940       -3.28310
H         -0.86110       -0.57450       -2.07140
H          0.57190       -0.48850        0.60200
H         -1.14770       -0.30510        0.30010
