10
gdb 3921	8.5356	2.03733	1.64475	4.8782	50.12	-0.271	-0.077	0.194	672.7102	0.067056	-359.306313	-359.300767	-359.299823	-359.336004	19.145
O         -0.05520       -0.03000       -0.00140
C          0.00790        1.17120        0.00670
C          1.26540        1.96150       -0.00050
N          2.44950        1.38010       -0.01750
O          3.36350        2.40790       -0.01900
C          2.71770        3.58720       -0.00310
C          1.37800        3.38300        0.00910
H         -0.90560        1.80540        0.02010
H          3.34420        4.46500       -0.00290
H          0.58890        4.11630        0.02290
