18
gdb 6868	3.37516	1.86568	1.62704	1.9858	63.1	-0.2475	0.0793	0.3268	868.7414	0.154273	-422.080975	-422.073285	-422.07234	-422.112378	29.866
C         -0.01950        1.56860        0.01450
C          0.01260        0.04770       -0.01680
O         -1.33620       -0.40190       -0.05190
C          0.75720       -0.48680       -1.25420
O          0.80870       -1.91110       -1.20910
C          1.44840       -2.35230       -0.04000
O          0.76450       -1.96010        1.12150
C          0.71020       -0.53890        1.22440
H          0.99090        1.98730        0.04200
H         -0.53340        1.95210       -0.87160
H         -0.56620        1.91510        0.89630
H         -1.29750       -1.36630       -0.07130
H          0.21620       -0.22060       -2.16530
H          1.77730       -0.07210       -1.30610
H          1.44810       -3.44360       -0.06300
H          2.48590       -1.96660       -0.01230
H          1.72720       -0.12750        1.33230
H          0.13480       -0.31080        2.12460
