16
gdb 16359	2.56018	2.36791	1.45452	4.3697	65.2	-0.268	0.0109	0.2789	884.2974	0.130095	-383.761316	-383.753801	-383.752857	-383.793064	27.881
C         -0.28290        1.48780        0.02920
C          0.09510        0.02470       -0.00870
O          1.36020       -0.19870       -0.74010
C          1.95890       -0.77220        0.35970
O          3.06210       -1.21000        0.45090
C          0.74510       -0.60570        1.22180
C          0.71410       -0.21870        2.67550
C          0.22740       -1.57380        2.24890
H          0.51510        2.08420        0.47980
H         -0.47030        1.86080       -0.98180
H         -1.19710        1.62680        0.61630
H         -0.68780       -0.58730       -0.46700
H          1.66910       -0.14790        3.18440
H         -0.02150        0.51970        2.97610
H         -0.84090       -1.76220        2.25920
H          0.84760       -2.43730        2.46280
