15
gdb 18971	4.69347	2.40387	1.95858	1.8857	63.79	-0.2491	0.0126	0.2618	694.8342	0.122673	-362.627565	-362.622328	-362.621384	-362.656603	21.891
C         -0.04840        1.59070        0.01330
C          1.46090        1.25220       -0.00920
C          1.14700        0.16000        1.05030
O          2.05240       -0.93410        1.15390
C          2.43570       -1.41650       -0.05010
N          2.05360       -0.97140       -1.17240
C          1.13400        0.14300       -1.06920
C         -0.00070        0.04450        0.00950
H         -0.43300        2.07000        0.91760
H         -0.44660        2.05860       -0.88960
H          2.31190        1.93240       -0.01850
H          0.90610        0.46730        2.06820
H          3.12570       -2.25000        0.05120
H          0.83080        0.49480       -2.05640
H         -0.82910       -0.66310        0.02150
