18
gdb 14739	5.28861	0.7096	0.64831	2.3019	74.52	-0.2498	0.0336	0.2834	1730.8165	0.151007	-384.897967	-384.887908	-384.886964	-384.9353	33.302
C         -0.08100        1.43080       -0.01660
C         -0.07210       -0.02360       -0.06250
C         -0.07130       -1.22620       -0.09840
C         -0.04440       -2.68070       -0.14880
O         -1.34620       -3.20160        0.06430
C         -1.39900       -4.61600       -0.00360
C         -2.86990       -4.99470        0.07130
O         -3.60290       -4.41630       -0.98900
H          0.60580        1.81020        0.74790
H          0.21630        1.86330       -0.97810
H         -1.08170        1.80750        0.22120
H          0.34250       -3.01880       -1.12530
H          0.64770       -3.07270        0.61590
H         -0.96790       -4.96890       -0.95450
H         -0.83070       -5.07330        0.82340
H         -2.97670       -6.08140       -0.01180
H         -3.26790       -4.68940        1.05220
H         -3.35790       -3.48310       -0.99440
