18
gdb 18724	3.15675	2.24426	1.51642	2.2407	67.44	-0.2539	0.084	0.3379	869.7949	0.154867	-384.931668	-384.924485	-384.923541	-384.962863	27.884
C          0.02050        1.51570       -0.00370
C          0.04050       -0.00760        0.01290
O          0.64750       -0.43140       -1.19760
C          0.84000       -1.83180       -1.26300
C          1.91640       -2.30030       -0.27770
C          1.69020       -1.68770        1.09320
O          2.17370       -0.34930        1.27420
C          0.76330       -0.55260        1.23340
H          1.04460        1.89720        0.00820
H         -0.47930        1.87460       -0.90680
H         -0.51120        1.90480        0.86990
H         -0.99510       -0.39490        0.05610
H         -0.10980       -2.35340       -1.05390
H          1.12410       -2.05670       -2.29490
H          1.90130       -3.39370       -0.20730
H          2.90960       -2.00660       -0.63330
H          1.86130       -2.33180        1.95530
H          0.24670       -0.39350        2.18170
