18
gdb 16422	3.33628	2.25224	1.88561	1.1802	66.67	-0.2341	0.0867	0.3208	794.2996	0.155457	-384.924205	-384.917408	-384.916464	-384.954827	27.065
C         -0.18010        1.55490        0.07410
C          0.05630        0.04810        0.00530
O          0.79210       -0.31510       -1.17480
C          2.20530       -0.42160       -1.01900
C          2.55220       -0.89430        0.38550
C          1.45570       -1.84060        0.91680
C          0.78070       -0.49310        1.23980
O          2.09190        0.14390        1.30290
H          0.76070        2.08090        0.25300
H         -0.61480        1.90800       -0.86440
H         -0.87080        1.80000        0.88860
H         -0.90540       -0.47310       -0.09490
H          2.54530       -1.13480       -1.77930
H          2.70190        0.54360       -1.19920
H          3.61040       -1.13580        0.51540
H          0.96290       -2.51220        0.21220
H          1.77070       -2.36950        1.81660
H          0.20630       -0.36660        2.16140
