11
gdb 23761	3.36447	2.47075	1.42458	2.387	55.93	-0.2499	-0.0499	0.2001	765.5522	0.073641	-438.740544	-438.734708	-438.733764	-438.770568	22.088
O          0.10800        1.35030        0.09900
C          0.07420        0.01000        0.03210
N          0.09360       -0.59370       -1.13780
C          0.05770       -1.93690       -1.13940
C          0.00250       -2.66030        0.03710
N         -0.01720       -2.04220        1.23280
C          0.01780       -0.74330        1.22570
F         -0.00030       -0.10160        2.38450
H          0.14430        1.66870       -0.81420
H          0.07390       -2.42780       -2.10700
H         -0.02660       -3.74440        0.04030
