18
gdb 226	4.38057	2.60111	2.59415	1.3469	59.72	-0.2638	0.0725	0.3363	650.4504	0.163869	-272.841336	-272.83319	-272.832246	-272.872437	29.797
C         -0.00810        1.54340        0.01120
C          0.01910        0.00440        0.00530
C          0.75960       -0.51060        1.25260
C         -1.41780       -0.54330       -0.01230
C          0.73540       -0.49250       -1.26000
O          2.06860       -0.00050       -1.26880
H          1.00570        1.94940       -0.02300
H         -0.55620        1.93080       -0.85540
H         -0.50140        1.91990        0.91360
H          0.27410       -0.15460        2.16740
H          0.76570       -1.60630        1.28240
H          1.79710       -0.16820        1.25660
H         -1.96900       -0.19460       -0.89310
H         -1.42900       -1.63920       -0.02020
H         -1.96750       -0.21260        0.87510
H          0.72410       -1.59490       -1.27370
H          0.18340       -0.14570       -2.14900
H          2.50300       -0.32030       -2.06420
