13
gdb 11201	4.90416	1.51645	1.15933	5.2676	69.6	-0.2077	-0.0399	0.1678	954.3623	0.096207	-398.643887	-398.636929	-398.635985	-398.675032	25.802
N          0.01140        1.09330        0.14990
H          0.13420        0.15250       -0.19070
H          0.73450        1.73040       -0.15180
C         -1.26180        1.58970        0.06340
O         -1.37090        2.92520        0.06500
C         -2.72330        3.22490        0.04020
C         -3.14440        4.60110        0.03020
O         -2.41980        5.57620        0.04030
C         -3.43330        2.05050        0.02260
C         -2.50120        0.98530        0.03610
H         -4.25400        4.69360        0.01050
H         -4.51000        1.97240        0.00000
H         -2.69950       -0.07400        0.03180
