16
gdb 7082	2.88484	1.20439	0.90011	3.517	63.33	-0.2598	-0.0353	0.2245	1232.0311	0.126875	-420.910174	-420.901015	-420.900071	-420.945689	30.45
C         -0.08300        1.60170        0.03600
C         -0.01330        0.07990       -0.02420
C          0.72920       -0.52430        1.17370
C          0.88100       -2.03070        1.08740
O          1.93760       -2.60370        1.15890
O         -1.35140       -0.46460       -0.00700
C         -1.94200       -0.73740       -1.18790
O         -3.06630       -1.12820       -1.27110
H          0.92320        2.03080        0.03670
H         -0.62460        1.99810       -0.82790
H         -0.60170        1.92330        0.94370
H          0.47870       -0.23270       -0.95580
H          1.72440       -0.08130        1.26310
H          0.15750       -0.28690        2.08100
H         -0.07020       -2.58850        0.95300
H         -1.27120       -0.57100       -2.05370
