17
gdb 18071	4.94676	1.22414	1.17712	3.0024	68.75	-0.247	-0.0227	0.2243	1055.0094	0.141443	-363.815842	-363.808288	-363.807343	-363.848721	27.621
O         -0.38930        0.60100        0.83270
C          0.02580        1.21430       -0.11520
C          1.45080        1.73250       -0.23830
N          1.48160        2.88410       -1.12160
C          1.43990        4.25400       -0.64610
C          2.24490        4.47060        0.64890
C          3.50410        3.88060       -0.06280
C          2.66060        3.69010       -1.33930
H         -0.60940        1.44110       -1.00000
H          1.85250        1.88150        0.77250
H          2.04030        0.93010       -0.70550
H          0.65820        4.90220       -1.02670
H          2.36510        5.53090        0.87980
H          1.88030        3.96270        1.54680
H          4.29060        4.62640       -0.19320
H          3.95000        2.97650        0.36200
H          3.00840        3.82120       -2.35860
