16
gdb 19466	4.89011	1.62056	1.59239	2.2549	65.08	-0.2453	-0.0328	0.2124	840.8337	0.131521	-383.718936	-383.712338	-383.711393	-383.750091	25.092
O         -0.87430        1.10120        0.32440
C          0.21680        0.92540       -0.16320
C          1.37080        1.88430       -0.13010
C          1.29940        3.08340       -1.16910
C          0.37730        3.80310       -0.13810
C          1.33570        3.09850        0.84600
O          2.60280        3.72520        0.59930
C          2.63820        3.75660       -0.84740
H          0.44350       -0.02480       -0.69930
H          2.31010        1.32160       -0.14530
H          1.03500        2.93600       -2.21550
H          0.38220        4.89550       -0.13280
H         -0.63270        3.40160       -0.10620
H          1.16340        3.00180        1.91560
H          3.51310        3.20780       -1.21380
H          2.68880        4.79220       -1.20390
