15
gdb 9219	6.63533	0.99759	0.89816	4.5739	60.82	-0.2616	-0.0033	0.2583	1243.8385	0.116869	-436.955535	-436.946649	-436.945705	-436.990317	29.259
C          0.29290        1.20490       -0.11090
O         -0.11410       -0.17190       -0.16770
C          0.46870       -0.90660       -1.12810
O          1.26990       -0.49350       -1.92340
C         -0.00740       -2.35370       -1.03240
O          0.24320       -3.08320       -2.20880
C          1.53310       -3.41610       -2.45930
N          1.81500       -4.04370       -3.51390
H          1.36870        1.27920        0.06530
H          0.05160        1.71250       -1.04760
H         -0.26290        1.64330        0.71730
H          0.46830       -2.81210       -0.15290
H         -1.08620       -2.37440       -0.86790
H          2.22870       -3.10270       -1.67160
H          2.81430       -4.23250       -3.54900
