14
gdb 16779	3.60493	2.14109	1.47215	0.9822	64.45	-0.257	-0.0173	0.2397	814.7906	0.10995	-378.766469	-378.760198	-378.759254	-378.796834	24.534
N         -0.11650        1.30010       -0.07150
C         -0.03480        0.03700        0.01350
N          1.09970       -0.77550        0.12930
C          0.85700       -2.14250       -0.02340
O          1.70690       -2.99240       -0.11390
C         -0.63820       -2.29740       -0.05800
C         -1.35110       -1.79740        1.17950
C         -1.20710       -0.89200       -0.01940
H          0.80240        1.74490       -0.03960
H          2.04090       -0.42000        0.20400
H         -1.05360       -3.10880       -0.63920
H         -2.33890       -2.20440        1.36240
H         -0.77160       -1.58850        2.07180
H         -2.08190       -0.58360       -0.57420
