17
gdb 18072	4.36747	1.48275	1.42942	3.5809	68.6	-0.2432	0.0295	0.2727	932.8721	0.14332	-363.854274	-363.846825	-363.845881	-363.886989	27.535
O          0.41970        1.06030        1.49070
C          0.24590        1.59010        0.41580
N          1.18680        1.70510       -0.56330
C          2.49560        1.12710       -0.45780
C          3.69310        1.77200       -1.09030
C          3.60790        3.30290       -1.01230
C          3.46660        3.20580        0.54050
C          3.56100        1.68090        0.44180
H         -0.71630        2.05380        0.11390
H          0.89880        2.08780       -1.45060
H          2.50520        0.03990       -0.50230
H          4.33180        1.21500       -1.76600
H          4.54110        3.78340       -1.31230
H          2.78610        3.77760       -1.55830
H          4.32020        3.64680        1.05850
H          2.54620        3.59670        0.98230
H          4.07300        1.03320        1.14240
