18
gdb 10130	2.50282	1.46918	0.99808	0.5327	75.3	-0.2215	-0.067	0.1545	1204.8839	0.151654	-381.131102	-381.121276	-381.120332	-381.166987	33.253
C          0.07850        1.53480        0.11060
C         -0.10280        0.02720       -0.10220
N          0.67370       -0.43050       -1.23800
C          1.75520       -1.11270       -1.12310
N          2.42820       -1.55990       -2.21840
C          2.02520       -1.21880       -3.56140
C          2.45470       -1.50150        0.15840
O          3.51020       -2.09140        0.16610
H          1.10620        1.76500        0.41100
H         -0.12860        2.07590       -0.81700
H         -0.59830        1.90120        0.88910
H          0.09680       -0.50290        0.84030
H         -1.15730       -0.16720       -0.33740
H          3.32700       -1.97650       -2.03860
H          2.66900       -1.74340       -4.27020
H          0.98540       -1.51490       -3.73280
H          2.09000       -0.13870       -3.74850
H          1.96760       -1.19450        1.09890
