17
gdb 9395	5.63369	0.81608	0.73931	3.7689	66.33	-0.2658	0.0091	0.2749	1484.3179	0.140041	-400.992632	-400.983142	-400.982198	-401.027698	32.098
C         -0.02150        1.38350        0.05230
O         -0.03070       -0.02360       -0.01120
C          0.65960       -0.52620       -1.13070
C          0.58860       -2.04830       -1.07470
C          1.32220       -2.70080       -2.25640
O          2.69470       -2.35410       -2.32600
C          1.14880       -4.16860       -2.22670
N          1.03430       -5.31730       -2.17620
H          1.00280        1.78270        0.11790
H         -0.50950        1.83490       -0.82590
H         -0.57250        1.67290        0.95010
H          0.20400       -0.15820       -2.06750
H          1.70880       -0.19270       -1.13120
H          1.02450       -2.40120       -0.13260
H         -0.45920       -2.36630       -1.07830
H          0.89150       -2.33690       -3.19680
H          3.13520       -2.70970       -1.54490
