17
gdb 17245	4.70022	1.71406	1.62408	2.0568	67.57	-0.2173	0.0812	0.2984	855.1491	0.142659	-363.764236	-363.757301	-363.756357	-363.795349	26.725
C          0.03590        1.28850       -0.26530
O         -0.10510       -0.02390        0.25840
C         -1.37790       -0.52130        0.15900
C         -2.59580       -0.26140        1.03330
N         -3.19200       -1.54320        0.47860
C         -3.43520       -1.17080       -0.97750
C         -1.93500       -1.10620       -1.17260
C         -1.76110       -1.95740        0.06050
H          1.08370        1.56920       -0.14080
H         -0.22690        1.32380       -1.33120
H         -0.59320        2.00880        0.27520
H         -2.37840       -0.39280        2.09660
H         -3.21430        0.63080        0.88380
H         -3.90550       -2.01400       -1.49130
H         -4.04330       -0.26970       -1.11920
H         -1.32830       -1.10130       -2.07010
H         -1.27760       -2.89690        0.28570
