14
gdb 8776	4.44657	1.31039	1.18508	3.1543	55.86	-0.2758	-0.0529	0.2229	985.2934	0.103429	-456.820875	-456.812423	-456.811479	-456.85429	29.24
O         -0.06170        1.44350        0.00120
C          0.03110        0.05110       -0.00350
C          0.74120       -0.43330       -1.25630
O          1.12390        0.34250       -2.09450
C          0.78900       -0.46580        1.24400
O          2.14560       -0.14490        1.18150
C          0.15680        0.12440        2.49330
O          0.81110        0.75550        3.28360
H          0.41530        1.74260       -0.78980
H         -0.97460       -0.41000       -0.00070
H          0.88100       -1.52800       -1.35530
H          0.64620       -1.56170        1.29390
H          2.31570        0.43290        1.94300
H         -0.92620       -0.06090        2.63600
