12
gdb 3401	5.23097	2.44088	2.28337	2.4004	51.56	-0.256	0.0095	0.2654	607.4024	0.090176	-360.469577	-360.46378	-360.462836	-360.499053	22.068
O          0.00240        1.38570       -0.03360
C         -0.06320        0.00690        0.00520
C         -0.48680       -0.75460        1.20040
O         -1.50080        0.02520        1.89350
C         -2.37950       -0.15020        0.80610
N         -3.58970        0.14460        0.70070
C         -1.36680       -0.82290       -0.05010
H         -0.47600        1.71810        0.73730
H          0.72990       -0.44290       -0.58550
H          0.03020       -1.51020        1.77740
H         -3.94460        0.58870        1.54870
H         -1.54620       -1.60460       -0.77340
