16
gdb 11801	3.49096	1.75637	1.32378	1.8996	65.02	-0.2431	-0.0283	0.2149	925.673	0.128241	-383.726141	-383.718356	-383.717412	-383.75842	28.699
C         -0.44180        1.40330       -0.03560
C          0.05420       -0.03550        0.01030
C          1.32930       -0.39510       -0.78290
O          1.72470       -0.10330       -1.87350
C          1.93640       -1.16740        0.40570
C          0.78700       -0.59210        1.24970
C          0.82130       -0.06790        2.61420
O          0.14460       -1.29460        2.29270
H          0.34160        2.10190        0.27410
H         -0.74120        1.66650       -1.05420
H         -1.30600        1.54440        0.62080
H         -0.74730       -0.73190       -0.27350
H          1.86740       -2.25340        0.27850
H          2.96210       -0.90650        0.67800
H          1.72460       -0.17710        3.21300
H          0.17260        0.75990        2.89660
