12
gdb 7025	7.59044	1.00333	0.89107	7.3031	57.68	-0.2742	-0.0516	0.2226	1169.7893	0.082336	-414.712294	-414.704154	-414.70321	-414.746454	26.713
O         -0.44960        0.11590        0.00670
C         -0.12640        1.26750        0.00880
N          1.18350        1.76140       -0.00070
C          2.36960        1.01890       -0.01480
O          2.42880       -0.17660       -0.02180
C          3.60910        1.94010       -0.02110
C          4.86220        1.19800       -0.03790
N          5.87500        0.64510       -0.05130
H         -0.84600        2.11080        0.01960
H          1.26500        2.76830        0.00350
H          3.56730        2.60010       -0.89650
H          3.58430        2.58880        0.86330
