16
gdb 11787	4.19246	1.81716	1.6606	2.145	63.95	-0.2394	-0.0021	0.2373	822.3182	0.130895	-383.68395	-383.677148	-383.676204	-383.714897	26.808
O          0.03160        1.41540        0.16980
C          0.06040        0.01110       -0.01460
C         -1.33620       -0.54520       -0.06960
C         -1.73860       -2.05130        0.02780
C         -2.99890       -1.32070        0.58070
O         -2.08980       -0.34040        1.18660
C         -3.49130       -0.56040       -0.66640
C         -2.35380       -0.02450       -1.10970
H         -0.55800        1.58090        0.91530
H          0.57850       -0.17700       -0.96140
H          0.62350       -0.49380        0.78500
H         -1.82840       -2.63010       -0.89320
H         -1.18420       -2.58590        0.80330
H         -3.70970       -1.76840        1.27320
H         -4.50040       -0.50950       -1.04780
H         -2.13960        0.60970       -1.95670
