13
gdb 18427	3.23737	2.31152	1.81682	4.9425	59.34	-0.2534	-0.0576	0.1958	739.6982	0.094438	-398.579162	-398.572438	-398.571494	-398.610099	24.635
O         -0.23770        0.31140        0.66890
C          0.11160        1.13790       -0.13660
C          1.30230        2.02640        0.01590
C          1.49720        2.89260        1.21170
C          0.97580        2.28090        2.51000
C          1.89290        1.09590        2.16190
O          2.27840        0.11670        2.70600
N          2.43240        1.72530        0.93600
H         -0.46190        1.31360       -1.07180
H          1.65910        2.44460       -0.92280
H          1.85320        3.91000        1.10110
H          1.32510        2.80990        3.40030
H         -0.09010        2.07120        2.59930
