16
gdb 10660	2.92183	1.74416	1.37818	2.3682	62.98	-0.2456	-0.0275	0.2181	936.5333	0.127407	-420.851128	-420.842558	-420.841614	-420.884036	30.74
C          0.14460        1.14880        0.30170
O         -0.19440       -0.15160       -0.17570
C          0.54420       -0.59580       -1.26140
C          1.94680       -1.16660       -0.98560
C          0.80160       -2.10400       -1.19430
O          0.22780       -2.79050       -0.13970
C          0.27810        0.02590       -2.57820
O         -0.48310        0.94250       -2.76790
H          1.20530        1.20340        0.58040
H         -0.07810        1.90690       -0.45380
H         -0.46930        1.32190        1.18760
H          2.70170       -1.06970       -1.75880
H          2.30020       -1.03710        0.03130
H          0.76010       -2.66350       -2.12460
H         -0.20110       -2.12530        0.41860
H          0.85820       -0.43570       -3.41150
