16
gdb 23867	2.5567	1.80645	1.78781	0.899	53.21	-0.2555	0.0766	0.3321	852.5273	0.125618	-511.441709	-511.432971	-511.432027	-511.474486	32.393
C         -0.04180        1.54500        0.02430
C         -0.01680        0.01080        0.04020
C          0.73170       -0.51670        1.27160
N         -1.39430       -0.48390        0.07680
C          0.70250       -0.48730       -1.22910
F          1.97260       -0.05690       -1.30480
F          0.73400       -1.83180       -1.27810
F          0.07370       -0.07020       -2.34350
H          0.97080        1.95450        0.00360
H         -0.57810        1.91860       -0.85270
H         -0.55390        1.90270        0.92000
H          0.22350       -0.16960        2.17370
H          0.74580       -1.61030        1.28230
H          1.76530       -0.16310        1.28470
H         -1.89600       -0.17250       -0.75040
H         -1.39800       -1.49990        0.05280
