18
gdb 17019	3.9424	1.59871	1.32291	0.673	79.01	-0.2527	0.0464	0.2991	977.3586	0.153768	-310.584805	-310.577341	-310.576397	-310.616139	29.576
C         -0.10450        1.63350        0.01280
C          0.03550        0.11950        0.01950
C          1.17880       -0.61040       -0.76210
C          2.17050       -0.16210        0.34910
C          0.88930       -0.62890        1.09740
C          0.89550       -1.86970        0.13370
C         -0.30500       -2.65700       -0.06100
C         -1.27660       -3.34910       -0.21930
H          0.83710        2.16710        0.16420
H         -0.52450        1.97050       -0.94150
H         -0.79500        1.95330        0.80120
H         -0.94520       -0.33830       -0.13770
H          1.34630       -0.62070       -1.84050
H          3.06330       -0.77950        0.48190
H          2.42280        0.89620        0.39890
H          0.72110       -0.66050        2.17520
H          1.76420       -2.52300        0.26240
H         -2.13800       -3.95370       -0.35990
