18
gdb 10052	3.34271	1.248	0.9754	2.6576	74.24	-0.2489	-0.0236	0.2254	1207.7251	0.150112	-347.785125	-347.77548	-347.774535	-347.820256	33.566
C         -0.01270        1.56480        0.05540
C         -0.02760        0.03870       -0.06570
C          0.75070       -0.49590       -1.29090
C          0.92100       -2.03040       -1.20760
C          1.66500       -2.58560       -2.33180
C          2.27840       -3.00960       -3.27430
C         -0.00460       -0.11880       -2.55340
O          0.23950        0.83180       -3.24870
H          1.00910        1.93770        0.18050
H         -0.42950        2.04440       -0.83480
H         -0.59720        1.88940        0.92140
H          0.40790       -0.40930        0.83590
H         -1.06360       -0.32500       -0.11260
H          1.73320       -0.01550       -1.33840
H          1.42510       -2.28040       -0.26640
H         -0.07060       -2.50130       -1.15430
H          2.81900       -3.39250       -4.10420
H         -0.87100       -0.78760       -2.77780
