13
gdb 4592	5.80187	1.54223	1.21837	2.1123	63.79	-0.2119	-0.0238	0.188	904.6834	0.097473	-398.667104	-398.660668	-398.659724	-398.697434	25.095
O          0.04160        1.36020       -0.14510
C          0.05720       -0.00040       -0.03160
C          0.06990       -0.75790       -1.19970
N          0.08560       -2.09330       -1.20090
C          0.08940       -2.72570       -0.03500
O          0.10540       -4.07990       -0.05480
C          0.07770       -2.06580        1.19620
C          0.06140       -0.68010        1.18870
H          0.03410        1.75210        0.73380
H          0.06700       -0.25670       -2.16340
H          0.11130       -4.32850       -0.98910
H          0.08140       -2.63280        2.11870
H          0.05190       -0.12840        2.12520
