15
gdb 18219	4.44653	1.68003	1.3829	3.697	66.8	-0.2348	-0.0261	0.2087	876.5204	0.11989	-362.645439	-362.638754	-362.63781	-362.67672	25.231
O         -0.04680       -0.03970       -0.19030
C          0.01410        1.12790        0.09860
C          1.29480        1.95420        0.04480
C          1.29890        2.89710       -1.15270
C          1.45070        4.17460       -0.79540
C          1.52690        4.30520        0.68690
N          0.27710        3.84890        1.36070
C          1.42100        2.92050        1.22720
H         -0.87590        1.70560        0.42070
H          2.13120        1.24760       -0.00210
H          1.16200        2.52980       -2.16300
H          1.49310        5.01870       -1.47280
H          2.11910        5.07920        1.16210
H          0.26760        4.20510        2.31530
H          1.94500        2.60370        2.12170
