17
gdb 14941	4.10667	1.6078	1.26748	3.8253	71.47	-0.2394	0.0148	0.2542	959.6404	0.14447	-363.90276	-363.895568	-363.894623	-363.934522	26.949
O         -0.06800       -0.02960       -0.21630
C         -0.00170        1.17970       -0.13180
N          1.14760        1.90040       -0.02740
C          1.15820        3.34980        0.06550
C          1.85850        3.80980        1.35110
C          3.14690        3.05370        1.54820
C          3.40350        1.90380        0.92810
C          2.43370        1.21790        0.00750
H         -0.89670        1.83380       -0.12770
H          1.68520        3.76960       -0.80300
H          0.12490        3.70610        0.02500
H          2.05260        4.88790        1.29510
H          1.19530        3.66230        2.21470
H          3.88170        3.48200        2.22430
H          4.35320        1.39610        1.07150
H          2.24180        0.18880        0.32730
H          2.86090        1.14600       -1.00660
