9
gdb 1367	8.97408	1.46004	1.26545	2.5898	49.53	-0.3277	-0.1151	0.2126	825.6378	0.053602	-338.257996	-338.25117	-338.250226	-338.289512	22.051
O         -0.10720       -0.10510        0.00150
C         -0.04080        1.09140        0.00590
C          1.25230        1.90520       -0.00080
C          2.45030        1.07610       -0.01470
N          3.41200        0.43870       -0.02580
C         -1.25370        1.93120        0.01920
N         -2.19260        2.60560        0.02940
H          1.23840        2.57160       -0.87300
H          1.25280        2.56280        0.87820
