18
gdb 14026	3.5413	1.52125	1.28685	1.4893	68.59	-0.236	0.0747	0.3106	1004.5067	0.152696	-384.881342	-384.873189	-384.872245	-384.914245	29.408
C         -0.37460        1.08040       -0.18480
O          0.48630       -0.00670        0.09960
C          0.96040       -0.63400       -1.04890
C          1.54760       -2.00160       -0.87240
C          0.23190       -1.83470       -1.58170
C         -1.14120       -2.34390       -1.16290
O         -1.50750       -2.53940       -2.54920
C         -0.18860       -2.16700       -3.00800
H          0.14720        1.86670       -0.75110
H         -1.25650        0.76790       -0.76080
H         -0.69930        1.49170        0.77350
H          1.42950        0.03760       -1.77210
H          2.42940       -2.26300       -1.44870
H          1.51660       -2.41720        0.13000
H         -1.14280       -3.28920       -0.60330
H         -1.79820       -1.62830       -0.65430
H         -0.21780       -1.33030       -3.71880
H          0.33660       -3.01350       -3.47190
