19
gdb 19152	3.69996	1.51794	1.24299	2.4124	71.07	-0.2409	0.0701	0.311	1033.9005	0.165041	-365.012621	-365.004224	-365.00328	-365.045879	30.979
C         -0.35420        1.75070       -0.14230
C         -0.44780        0.22420       -0.20200
C          0.54600       -0.50040       -1.10510
C          1.12130        0.14080       -2.31750
N          1.96350       -0.11210       -1.13210
C          0.30440       -1.98440       -1.13800
C          1.39210       -2.96620       -1.11870
O          0.61880       -2.70620        0.05770
H          0.63620        2.09620        0.17500
H         -0.58110        2.21530       -1.10670
H         -1.07270        2.14010        0.58460
H         -0.32620       -0.19130        0.80600
H         -1.45960       -0.05920       -0.52070
H          1.36630       -0.46650       -3.18500
H          0.84280        1.16440       -2.54910
H          2.09960        0.75170       -0.61360
H         -0.64820       -2.27490       -1.58720
H          1.23680       -3.94600       -1.56930
H          2.41560       -2.60330       -1.08730
