14
gdb 21135	5.25295	1.65631	1.26931	1.8376	69.78	-0.2235	-0.0712	0.1524	910.0644	0.109182	-374.897497	-374.890574	-374.889629	-374.928683	25.27
C         -0.18520        1.40970        0.07470
N         -0.11370       -0.03740        0.02990
C          0.66000       -0.62200        0.86610
N          1.46000       -0.01880        1.83660
N          2.26660       -0.66690        2.70490
C          2.27990       -1.95660        2.60690
N          1.55460       -2.72220        1.70800
C          0.79370       -2.07600        0.89190
H          0.78980        1.88940       -0.11850
H         -0.87930        1.76350       -0.69070
H         -0.54700        1.78720        1.04660
H          1.47110        0.98330        1.93720
H          2.92240       -2.48900        3.29710
H          0.19960       -2.62320        0.16250
