17
gdb 10804	4.8289	1.46705	1.14891	3.9593	71.54	-0.2369	0.0174	0.2543	1025.0809	0.143385	-363.919572	-363.911752	-363.910808	-363.952127	28.711
C          0.10640        1.54010        0.06380
C         -0.01910        0.04470       -0.02890
C         -0.02020       -0.62150       -1.18180
C         -0.14440       -2.11090       -1.29280
C         -0.27490       -2.86360        0.02310
O         -0.38100       -4.07600        0.06010
N         -0.26780       -2.10890        1.15950
C         -0.14570       -0.66960        1.28870
H          0.98630        1.83190        0.65150
H          0.19580        1.99240       -0.92670
H         -0.76430        1.98430        0.56320
H          0.07390       -0.07010       -2.11500
H         -1.01220       -2.39040       -1.90470
H          0.71740       -2.54120       -1.81980
H         -0.35640       -2.65300        2.00570
H          0.72780       -0.42420        1.91450
H         -1.01750       -0.26920        1.83120
