18
gdb 14353	3.13751	2.11464	2.05396	2.5971	65.96	-0.2523	0.0717	0.324	784.68	0.156655	-384.936444	-384.929876	-384.928932	-384.966878	26.655
O         -0.51080        1.33540       -0.58840
C         -0.03680        0.10070       -0.06930
C         -1.18440       -0.87760        0.29290
C         -1.52050       -1.63400       -1.00740
C         -2.30820       -0.83700       -2.06190
O         -1.08630       -0.44450       -2.74160
C         -0.30140       -1.38480       -1.94300
C          0.77240       -0.68440       -1.12240
H         -0.73550        1.17430       -1.51540
H          0.55890        0.35330        0.81290
H         -0.83270       -1.58780        1.05030
H         -2.03860       -0.33940        0.71280
H         -1.84680       -2.66130       -0.84370
H         -2.94270       -1.44740       -2.71620
H         -2.87610        0.03030       -1.70860
H          0.05560       -2.21520       -2.56050
H          1.41120       -0.03150       -1.72400
H          1.40790       -1.43940       -0.64340
