14
gdb 15300	3.56032	1.40416	1.12189	4.2555	63.27	-0.2673	-0.0159	0.2513	1017.9687	0.106709	-378.723847	-378.716085	-378.715141	-378.756802	26.803
O         -0.11070        0.53570       -0.46090
C          0.07980        1.63890       -0.01390
N          1.27510        2.05850        0.55440
C          2.58410        1.69910        0.06640
C          2.13260        3.13260        0.09830
C          1.84600        3.85060       -1.21420
C          0.84990        4.91290       -1.06770
N          0.06260        5.74770       -0.93380
H         -0.70190        2.41730        0.05480
H          3.29310        1.34260        0.80770
H          2.62950        1.19810       -0.89800
H          2.50810        3.77990        0.88790
H          2.77430        4.29280       -1.59400
H          1.49670        3.13750       -1.96940
