20
gdb 10989	2.73888	2.37186	1.70219	1.5394	74.45	-0.23	0.0889	0.3189	873.271	0.177654	-348.994057	-348.986457	-348.985513	-349.025246	30.413
C         -0.16840        1.55920       -0.07650
C          0.01010        0.04900        0.00110
C          1.15750       -0.60300       -0.84710
C          2.12950       -0.22090        0.31190
C          0.87110       -0.55730        1.15660
C          0.69670       -0.24530        2.61520
O          0.71910       -1.97750        0.92320
C          0.91860       -2.07660       -0.50540
H          0.77210        2.11150        0.00240
H         -0.63360        1.84120       -1.02750
H         -0.82660        1.91250        0.72510
H         -0.96470       -0.44230       -0.09870
H          1.34400       -0.34210       -1.88890
H          3.00960       -0.84900        0.47340
H          2.40730        0.83230        0.32090
H          0.78810        0.82990        2.79380
H         -0.28840       -0.57370        2.96170
H          1.45480       -0.76170        3.21220
H          0.02590       -2.49760       -0.98400
H          1.77710       -2.72390       -0.72270
