20
gdb 13729	5.81811	0.80288	0.76407	1.0329	73.13	-0.253	0.0934	0.3465	1546.1085	0.174747	-386.112629	-386.103031	-386.102087	-386.147921	33.211
C         -0.06040        1.35210       -0.33590
O         -0.05380        0.04140        0.17500
C         -1.27420       -0.63410       -0.03350
C         -1.14360       -2.04530        0.53210
C         -2.42930       -2.82120        0.38880
O         -2.79210       -3.26150       -0.92880
C         -2.52550       -4.25560        0.06710
C         -1.35460       -5.17650       -0.16100
H          0.92040        1.78890       -0.13180
H         -0.23710        1.36710       -1.42320
H         -0.83290        1.97500        0.14340
H         -2.10220       -0.09530        0.46100
H         -1.51600       -0.68260       -1.10780
H         -0.32010       -2.55020        0.02140
H         -0.87870       -1.97730        1.59450
H         -3.26970       -2.39250        0.94170
H         -3.42700       -4.76430        0.41750
H         -0.47280       -4.63810       -0.51280
H         -1.09830       -5.70370        0.76460
H         -1.61180       -5.92960       -0.91330
