15
gdb 14939	4.79488	1.50403	1.19377	0.3674	61.98	-0.2562	-0.0416	0.2146	951.8886	0.119299	-399.817703	-399.810419	-399.809475	-399.850378	25.772
O         -0.94370        1.08510        0.27630
C          0.20040        0.83760        0.00400
C          1.30450        1.88290        0.04440
C          1.48600        2.48980        1.43770
C          2.70780        3.41210        1.40580
N          3.86660        2.80420        0.75530
C          3.67460        1.82500       -0.01680
O          2.50470        1.24120       -0.39950
H          0.54550       -0.17800       -0.28900
H          1.04590        2.67590       -0.67220
H          0.57070        3.01450        1.72260
H          1.64720        1.68250        2.16150
H          2.47080        4.35090        0.88770
H          3.00140        3.69090        2.42320
H          4.50730        1.31160       -0.49330
