15
gdb 15860	2.91184	1.98508	1.3126	1.8529	63.13	-0.2626	-0.0384	0.2242	913.0872	0.117379	-399.808503	-399.800647	-399.799702	-399.841165	27.859
C         -0.39290        1.41700        0.14430
C          0.08950       -0.01320        0.07580
O          1.30210       -0.13940       -0.76120
C          2.03570       -0.65700        0.27670
N          3.23860       -0.99740        0.36260
C          0.87680       -0.63940        1.25660
C          1.09450        0.09620        2.56060
O          0.33630        0.90590        3.02700
H          0.39360        2.08700        0.49810
H         -0.70920        1.74270       -0.85110
H         -1.23920        1.49670        0.83070
H         -0.68370       -0.67530       -0.32360
H          3.73570       -0.85450       -0.51800
H          0.55570       -1.65660        1.51160
H          2.03270       -0.19650        3.07830
