19
gdb 9885	4.49677	1.11515	1.05081	3.6597	73.18	-0.2478	0.0331	0.2809	1180.8223	0.164897	-365.082004	-365.073098	-365.072154	-365.116439	32.191
C         -0.32990        1.35000       -0.49100
C         -0.03680       -0.05900       -0.01380
C         -1.16530       -1.05670       -0.21280
N         -2.34990       -0.72660        0.56750
C         -3.58160       -0.53710        0.02340
O         -3.85590       -0.64050       -1.15350
C          1.36760       -0.58770       -0.16110
C          0.83680       -0.23980        1.20980
H          0.51720        2.01540       -0.29900
H         -0.53350        1.36540       -1.56770
H         -1.20600        1.76680        0.01690
H         -1.49090       -1.08020       -1.25630
H         -0.81800       -2.06480        0.04920
H         -2.24440       -0.59440        1.56130
H         -4.33120       -0.27160        0.79600
H          1.50300       -1.63680       -0.40320
H          2.11060        0.06700       -0.60320
H          1.22340        0.64800        1.69880
H          0.61920       -1.05870        1.88900
