10
gdb 21760	5.85056	2.35348	1.67834	5.2823	52.52	-0.268	-0.0536	0.2144	664.5243	0.063245	-409.600485	-409.595523	-409.594579	-409.629543	18.757
O         -0.01070        1.31300        0.00930
N          1.32170        1.79770       -0.00090
C          2.09570        0.75900       -0.01400
N          1.37370       -0.41010       -0.01330
C          1.30560       -1.79120       -0.02000
N          0.04910       -2.15420       -0.01000
N         -0.77340       -1.02610        0.00400
C          0.05790       -0.02860        0.00140
H          3.17130        0.83290       -0.02400
H          2.16170       -2.44390       -0.03170
