14
gdb 7039	7.69719	0.83651	0.76157	3.877	75.38	-0.2579	-0.0516	0.2063	1436.8596	0.10278	-345.359916	-345.350502	-345.349558	-345.397094	31.052
C          0.09990        1.46290        0.00860
C          0.02710        0.01240       -0.00010
C         -0.05500       -1.19190       -0.00720
C         -0.14280       -2.63710       -0.01560
O         -1.19630       -3.22820       -0.01570
C          1.22480       -3.34130       -0.02440
C          1.15390       -4.79150       -0.03300
C          1.10700       -5.99110       -0.04020
H          1.13640        1.81430       -0.01550
H         -0.42230        1.88160       -0.85850
H         -0.37600        1.86790        0.90830
H          1.77960       -2.96770       -0.89600
H          1.78540       -2.97840        0.84790
H          1.05670       -7.05160       -0.04650
