15
gdb 18567	3.81497	2.07154	1.67848	4.967	59.87	-0.2444	0.0036	0.248	783.8483	0.121843	-399.825513	-399.819291	-399.818347	-399.855955	24.072
O         -0.21040        0.25930        0.60900
C         -0.04550        1.34230        0.15300
O         -0.99030        2.16970       -0.40860
C         -0.00680        3.22520       -0.68620
C         -0.12390        4.41420        0.25620
C          0.55650        3.91030        1.55650
N          1.61300        2.96920        1.14020
C          1.11860        2.33890       -0.06860
H          0.00260        3.45540       -1.75120
H          0.43570        5.25590       -0.16860
H         -1.15950        4.73130        0.40050
H          0.97620        4.71190        2.16700
H         -0.17020        3.37230        2.17590
H          2.46890        3.47180        0.93160
H          1.91680        1.95770       -0.70530
