20
gdb 6763	7.25167	0.64153	0.60026	1.2196	72.53	-0.2428	-0.0082	0.2346	1824.4937	0.173815	-386.163111	-386.152722	-386.151778	-386.200111	35.024
C         -0.08670        1.52810        0.01090
C          0.07870        0.01720        0.00230
O          1.17030       -0.50420       -0.01170
C         -1.20730       -0.80100        0.00990
C         -0.98010       -2.31190       -0.00070
C         -2.28800       -3.10720        0.00730
C         -2.06180       -4.61310       -0.00330
O         -3.33190       -5.24740        0.00530
H          0.89250        2.00820        0.00400
H         -0.66370        1.85410       -0.86180
H         -0.64740        1.84590        0.89720
H         -1.79600       -0.49760        0.88790
H         -1.81260       -0.48780       -0.85330
H         -0.38170       -2.57500       -0.88060
H         -0.36510       -2.58480        0.86470
H         -2.88410       -2.85340        0.89310
H         -2.90090       -2.84350       -0.86400
H         -1.48060       -4.89450       -0.89700
H         -1.46370       -4.90440        0.87610
H         -3.19300       -6.19880       -0.00110
