16
gdb 10422	2.63039	1.97912	1.41671	3.7924	64.82	-0.2473	0.0137	0.261	913.4932	0.131134	-379.90329	-379.89533	-379.894385	-379.935679	29.043
O         -1.01190        1.26780        0.47120
C         -0.08540       -0.09520        0.11290
C         -1.54730       -0.52950       -0.11110
C         -1.76230       -2.06980       -0.00860
C         -2.28400       -1.79080        1.42400
N         -2.41560       -0.35550        1.07260
C         -2.05480        0.14540       -1.31600
N         -2.40340        0.69750       -2.27030
H         -0.25870        1.79650       -0.29310
H          0.51670       -0.33360       -0.77650
H          0.32010       -0.65990        0.95860
H         -2.53190       -2.43520       -0.68790
H         -0.86330       -2.67930       -0.11200
H         -3.22890       -2.26390        1.70540
H         -1.53900       -2.00960        2.19930
H         -2.05750        0.32410        1.73690
