14
gdb 398	5.65815	3.06401	2.39381	0.7654	59.61	-0.24	0.0571	0.2972	582.3195	0.118255	-233.255259	-233.2487	-233.247756	-233.284774	24.638
C         -0.03330        1.50960        0.00450
C          0.00760       -0.01150        0.00250
C          1.34560       -0.69790       -0.23440
C          0.73630       -0.71610        1.13830
C         -1.16760       -0.65160       -0.52770
C         -2.16020       -1.16410       -0.97490
H          0.89270        1.91790        0.42120
H         -0.15140        1.89870       -1.01160
H         -0.87010        1.87730        0.60640
H          1.34300       -1.61680       -0.80800
H          2.20080       -0.05440       -0.41180
H          1.17220       -0.08520        1.90560
H          0.31820       -1.64740        1.50060
H         -3.03320       -1.62230       -1.36840
