19
gdb 1465	5.72019	1.15024	1.00546	0.1229	76.63	-0.2394	0.0641	0.3035	1220.8476	0.169246	-273.773506	-273.763974	-273.76303	-273.809041	32.502
C         -0.10810        1.53600       -0.07670
C         -0.07510        0.00920        0.03510
C          0.73690       -0.52230        1.24250
C          0.13050       -0.10670        2.59850
C          0.87390       -1.97770        1.16440
C          0.96170       -3.17740        1.09790
C          1.08000       -4.62690        1.01830
H          0.90500        1.95220       -0.12100
H         -0.63200        1.84480       -0.98650
H         -0.62210        2.00120        0.76980
H         -1.09620       -0.38640        0.09990
H          0.35890       -0.41310       -0.87770
H          1.74370       -0.08270        1.17820
H         -0.89100       -0.48850        2.69510
H          0.72050       -0.51220        3.42460
H          0.10380        0.98160        2.70190
H          0.70840       -5.10900        1.92950
H          0.50630       -5.02910        0.17560
H          2.12280       -4.93600        0.88400
