19
gdb 14779	15.31354	0.55896	0.54667	4.3399	72.51	-0.2586	0.0219	0.2805	1983.0659	0.163279	-402.181014	-402.170958	-402.170013	-402.21813	32.681
C          0.02270        1.34050        0.00890
O         -0.00350       -0.06640        0.00170
C         -1.31050       -0.59150        0.01120
C         -1.21220       -2.11170        0.00220
C         -2.57980       -2.77590        0.01180
O         -2.37630       -4.19050        0.00260
C         -3.48700       -4.95000        0.00950
N         -3.39350       -6.20880        0.00240
H          1.07100        1.64810        0.00070
H         -0.47910        1.76410       -0.87590
H         -0.46240        1.75470        0.90740
H         -1.85890       -0.24280        0.90480
H         -1.87560       -0.23340       -0.86820
H         -0.65880       -2.43380       -0.88550
H         -0.64200       -2.44310        0.87570
H         -3.14870       -2.48700        0.90700
H         -3.16550       -2.47790       -0.86960
H         -4.41940       -4.36690        0.02160
H         -4.32280       -6.62420        0.00950
