13
gdb 5196	5.93238	1.48673	1.1888	2.5392	62.23	-0.2084	0.0107	0.2192	925.2434	0.098458	-394.846966	-394.840358	-394.839414	-394.878032	24.302
O         -0.29940        0.05680        0.00060
C         -0.07520        1.24990        0.00820
N          1.16480        1.81130        0.00090
C          2.37030        1.10880       -0.01520
C          2.59580       -0.24520       -0.02790
N          3.97430       -0.35280       -0.04070
C          4.49130        0.90230       -0.03520
N          3.54440        1.81640       -0.01990
H         -0.87150        2.01810        0.02080
H          1.25390        2.81630        0.00810
H          1.92920       -1.08610       -0.02860
H          4.49470       -1.21340       -0.05190
H          5.55290        1.09560       -0.04300
