18
gdb 13414	5.26886	1.12512	1.03338	0.8372	64.61	-0.2567	0.0849	0.3416	1172.424	0.15379	-422.059112	-422.050794	-422.049849	-422.092818	28.804
C         -0.05160        1.39720       -0.65620
O         -0.18750       -0.00140       -0.74640
C          0.93850       -0.69820       -0.26280
C          0.66810       -2.18940       -0.42880
C          0.67710       -2.64780       -1.89850
O          2.01990       -3.07870       -2.08820
C          2.36070       -3.67850       -0.86840
O          1.75130       -2.91510        0.15870
H          0.08230        1.72670        0.38610
H          0.80540        1.76260       -1.24350
H         -0.96760        1.84200       -1.05250
H          1.84800       -0.42760       -0.82470
H          1.12260       -0.47360        0.79980
H         -0.27180       -2.44720        0.07240
H         -0.02710       -3.47650       -2.06300
H          0.45950       -1.84110       -2.59970
H          1.99420       -4.72050       -0.82400
H          3.44840       -3.65670       -0.75050
