19
gdb 2206	4.12659	2.13947	1.66289	1.3159	67.05	-0.251	0.0742	0.3251	819.7929	0.170964	-310.912796	-310.904739	-310.903794	-310.944433	30.263
C         -0.04650        1.57420       -0.07470
C          0.06700        0.05910        0.01140
C          1.06940       -0.67840       -0.92080
C          1.34380       -1.66440        0.24400
O          2.66860       -2.06280        0.51590
C          0.76590       -0.62200        1.23980
C          1.82900        0.21150        1.95180
H          0.92770        2.06180        0.03020
H         -0.46310        1.87570       -1.04240
H         -0.70490        1.97200        0.70590
H         -0.92950       -0.37990       -0.11160
H          0.69840       -1.08060       -1.86760
H          1.95630       -0.06720       -1.11620
H          0.67890       -2.53810        0.17440
H          2.95670       -2.65120       -0.18880
H          0.07870       -1.03620        1.98440
H          2.55450        0.64360        1.25680
H          1.36800        1.03040        2.51360
H          2.38990       -0.41120        2.65410
