19
gdb 16837	3.54021	1.76936	1.415	2.2922	70.08	-0.236	0.0725	0.3086	937.2771	0.167403	-365.052732	-365.045168	-365.044224	-365.084324	29.788
C          0.05930        1.56310       -0.03360
C          0.01860        0.03510        0.02270
C          0.64720       -0.66050       -1.20880
C          1.20370       -2.02740       -0.72330
O          2.35040       -2.46150       -1.43080
C          1.45090       -1.81490        0.76230
N          2.25310       -0.58520        0.98480
C          0.78460       -0.56970        1.19350
H          1.09590        1.91310       -0.07040
H         -0.45980        1.94140       -0.92030
H         -0.41820        2.00850        0.84620
H         -1.02580       -0.29050        0.12550
H         -0.05840       -0.77310       -2.03550
H          1.48790       -0.06550       -1.57840
H          0.46020       -2.82120       -0.85780
H          3.04940       -1.83490       -1.20550
H          1.59800       -2.66690        1.41800
H          2.71500       -0.64940        1.88820
H          0.41120       -0.44170        2.20550
