18
gdb 1660	4.71048	1.80699	1.34978	3.3917	66.18	-0.2336	0.0364	0.27	929.034	0.158348	-327.012568	-327.003498	-327.002554	-327.046659	30.697
C         -0.07940        1.57320        0.01510
C          0.01280        0.04810       -0.01460
C          0.72720       -0.45200       -1.27350
O          1.14510        0.33500       -2.10830
N          0.87640       -1.81070       -1.42250
C          1.54990       -2.32130       -2.60430
C          0.41650       -2.81770       -0.48890
H          0.91500        2.02430       -0.01010
H         -0.62580        1.94760       -0.85340
H         -0.59260        1.90530        0.92250
H          0.54380       -0.31640        0.87360
H         -0.99080       -0.39280        0.03280
H          2.44000       -2.89930       -2.32380
H          0.88320       -2.97990       -3.17600
H          1.84450       -1.47530       -3.22240
H         -0.07800       -2.36950        0.36970
H         -0.29370       -3.50180       -0.97360
H          1.25810       -3.42130       -0.12190
