15
gdb 20286	4.15945	3.10636	2.89116	1.6072	64.79	-0.2388	0.0691	0.3079	585.8616	0.122474	-325.44812	-325.443597	-325.442653	-325.476346	20.388
C         -0.05800        1.57580       -0.01780
C          0.16430        0.81530       -1.32580
C          0.05460        0.07350       -0.01910
N          1.37140       -0.38060        0.46870
C          2.18080        0.80410        0.79180
C          2.39830        0.06030       -0.48740
C          1.67090        1.16600       -1.29770
C          1.44250        1.94700        0.04560
H         -0.91310        2.13550        0.34090
H         -0.48440        0.66940       -2.18070
H         -0.79400       -0.55890        0.20430
H          2.74260        0.83670        1.71890
H          3.17170       -0.63050       -0.80470
H          2.14930        1.63750       -2.15180
H          1.75640        2.98110        0.15910
