10
gdb 3812	8.35327	2.18283	1.74983	3.3183	44.79	-0.2889	-0.0693	0.2195	651.6023	0.066433	-392.563319	-392.557499	-392.556555	-392.593219	19.722
C          0.01120        1.39120        0.00810
O         -0.03140       -0.04460        0.00320
C         -1.23530       -0.57620        0.01040
N         -2.38080        0.05070        0.02150
O         -3.29380       -0.96520        0.02480
N         -2.62370       -2.17700        0.01480
N         -1.38740       -1.95020        0.00650
H          1.06820        1.65260        0.00090
H         -0.48950        1.78960       -0.87880
H         -0.47570        1.78310        0.90560
