12
gdb 21861	3.57853	2.36461	1.4238	1.442	61.91	-0.2384	-0.0632	0.1752	785.7113	0.085193	-414.65203	-414.645889	-414.644945	-414.682278	23.491
O          0.07410        1.31560       -0.16700
C         -0.02060       -0.00210       -0.04400
C         -1.16960       -0.70200        0.07800
C         -1.04780       -2.12350        0.19910
N          0.04100       -2.81600        0.20510
O          1.23670       -2.07200        0.07670
C          1.25710       -0.72280       -0.04530
N          2.32360       -0.03450       -0.16180
H          1.03770        1.48990       -0.23240
H         -2.13950       -0.22320        0.08500
H         -1.93720       -2.73950        0.30020
H          3.16930       -0.60030       -0.15460
