16
gdb 11887	4.69105	1.57406	1.36265	1.9174	64.9	-0.2434	-0.0246	0.2188	913.892	0.130068	-383.74601	-383.738982	-383.738038	-383.777376	27.035
O         -0.04910        0.08070       -0.37400
C         -0.00610        1.24630       -0.08950
C         -1.20630        2.15330        0.21020
O         -0.66520        3.38120        0.66170
C          0.62130        3.52130        0.08120
C          0.78820        4.53190       -1.02530
C          1.33690        4.79140        0.37060
C          1.23440        2.13740        0.03550
H         -1.79890        2.27130       -0.71160
H         -1.85250        1.73010        0.98430
H          1.48920        4.32180       -1.82640
H         -0.09330        5.09050       -1.31870
H          0.81200        5.51590        0.98330
H          2.41000        4.75640        0.52440
H          1.74240        1.88760        0.97600
H          1.93120        1.96220       -0.78580
