18
gdb 16754	5.37166	1.32829	1.19234	2.0724	73.22	-0.2346	0.0067	0.2413	1050.5725	0.154122	-347.79991	-347.792396	-347.791452	-347.831958	28.552
C          0.09250        1.48810        0.27360
C         -0.05510        0.01460       -0.14470
C         -1.47010       -0.48130       -0.11900
C         -2.16120       -0.99420       -1.14580
C         -3.49570       -1.48460       -0.69860
O         -3.41300       -2.54210        0.29100
C         -3.58730       -1.19910        0.74320
C         -2.29930       -0.50150        1.16140
H          1.14060        1.79890        0.22970
H         -0.48350        2.14260       -0.38820
H         -0.25950        1.65310        1.29680
H          0.35640       -0.12540       -1.15040
H          0.55520       -0.60500        0.52780
H         -1.79370       -1.09550       -2.16020
H         -4.35220       -1.54740       -1.36270
H         -4.52260       -0.99600        1.25820
H         -1.78830       -1.03870        1.97020
H         -2.50390        0.51110        1.53200
