20
gdb 11478	3.30851	1.54796	1.40216	1.8153	71.5	-0.2379	0.081	0.3188	1014.4972	0.176717	-386.140222	-386.131602	-386.130658	-386.173762	31.38
C          0.05610        0.86700        0.49910
O         -0.07860       -0.40000       -0.10120
C          0.65810       -0.55830       -1.30340
C          2.15000       -0.82460       -1.06380
O          2.25560       -2.19780       -0.73460
C          1.14000       -2.92980       -1.27120
C          0.47130       -3.70130       -0.13870
C          0.22850       -1.87940       -1.94760
H          1.08450        1.07270        0.83090
H         -0.25070        1.67290       -0.18660
H         -0.59810        0.88000        1.37410
H          0.49450        0.31070       -1.95830
H          2.72150       -0.58520       -1.97670
H          2.56910       -0.23780       -0.24040
H          1.52640       -3.63710       -2.01810
H          0.03570       -3.00320        0.58080
H         -0.32040       -4.35080       -0.52770
H          1.20630       -4.32600        0.37690
H         -0.83430       -2.06850       -1.78590
H          0.41310       -1.83800       -3.02470
