16
gdb 4347	3.61887	1.92683	1.2772	0.7892	74.63	-0.2389	-0.0432	0.1957	949.4839	0.131177	-342.850759	-342.842997	-342.842053	-342.88381	27.475
C          0.04210        1.49540        0.04080
C          0.04450       -0.00820       -0.00600
C          0.11980       -0.71150       -1.21240
N          0.12260       -2.04250       -1.26430
C          0.04920       -2.67850       -0.09630
C         -0.02700       -1.99930        1.12390
C         -0.10950       -2.72810        2.43730
N         -0.02870       -0.66250        1.15810
H          0.10510        1.92840       -0.96050
H         -0.86980        1.86110        0.52350
H          0.88660        1.86050        0.63380
H          0.17940       -0.18110       -2.15990
H          0.05080       -3.76550       -0.12590
H          0.73210       -2.45260        3.08070
H         -1.02430       -2.45140        2.97100
H         -0.10150       -3.81170        2.29640
