14
gdb 10786	4.76246	1.58851	1.22976	0.0809	65.88	-0.2581	-0.0958	0.1622	914.1856	0.107986	-382.594929	-382.588144	-382.5872	-382.626251	25.167
O          0.04600       -0.06280        0.13040
C         -0.01490        1.14250        0.01360
C         -1.33260        1.90070       -0.04100
C         -1.27000        3.15000       -0.93410
C         -0.04480        4.01100       -0.66650
O         -0.05270        5.21850       -0.77640
C          1.20200        3.28260       -0.31070
C          1.21930        1.97120       -0.02800
H         -2.11870        1.21010       -0.35410
H         -1.56300        2.20080        0.99080
H         -1.21150        2.84290       -1.98770
H         -2.16170        3.77270       -0.83360
H          2.10550        3.88570       -0.30020
H          2.14190        1.44200        0.19280
