15
gdb 18360	3.51669	2.25109	1.69672	2.5997	60.85	-0.2571	0.0077	0.2648	771.5351	0.120459	-399.765417	-399.758933	-399.757989	-399.795896	25.197
O          0.15780        1.44500        0.00570
C          0.08810        0.03460       -0.04620
C          0.51240       -0.61860        1.32360
N         -0.70840       -0.55160        2.19400
C         -1.63700       -0.55770        1.33640
O         -2.93480       -0.13370        1.29950
C         -2.71270        0.24250       -0.12740
C         -1.35960       -0.51780       -0.12450
H         -0.15620        1.72700        0.87330
H          0.71840       -0.27170       -0.88450
H          0.85720       -1.65220        1.19210
H          1.32290       -0.05010        1.78810
H         -3.50520       -0.16090       -0.75800
H         -2.63870        1.32800       -0.21310
H         -1.40950       -1.47810       -0.64220
