12
gdb 20742	3.56784	1.99127	1.2882	4.0314	62.3	-0.281	-0.0471	0.2339	863.0251	0.085889	-373.728697	-373.721739	-373.720795	-373.76065	24.06
C         -0.03570        1.50630       -0.02320
C         -0.01190        0.01610        0.00980
N         -0.03220       -0.73360       -1.09110
N          0.00060       -1.97960       -0.62550
N          0.04080       -2.13130        0.68040
C          0.03380       -0.86430        1.12040
C          0.06850       -0.53300        2.49940
N          0.09580       -0.20680        3.60930
H          0.85510        1.92400        0.45630
H         -0.07400        1.85430       -1.05650
H         -0.90640        1.89710        0.51260
H         -0.00510       -2.77460       -1.24560
