15
gdb 1860	5.38382	1.95351	1.61657	1.2877	58.18	-0.2601	0.0011	0.2611	762.9675	0.125543	-345.655745	-345.648913	-345.647969	-345.686551	25.757
O          0.05550        1.42490        0.08110
C          0.05240        0.00490        0.02840
C         -1.35610       -0.64340       -0.01910
C         -1.23820       -1.86020       -0.97400
O         -2.37070       -2.08140       -1.80330
C          0.03930       -1.57440       -1.73080
C          0.73250       -0.57260       -1.19240
H         -0.33220        1.74480       -0.74120
H          0.58590       -0.29310        0.93950
H         -1.74650       -0.90320        0.96690
H         -2.05400        0.07760       -0.46220
H         -1.14380       -2.79280       -0.40400
H         -2.45280       -1.31990       -2.38830
H          0.32860       -2.16880       -2.59100
H          1.69240       -0.19800       -1.53180
