16
gdb 18885	3.46473	2.79752	2.59707	2.0839	62.18	-0.2482	0.0914	0.3396	650.9048	0.134415	-383.737307	-383.732191	-383.731247	-383.766168	22.23
C         -0.01400        1.54380        0.10060
C          1.52410        1.44360       -0.02280
O          2.07760        1.03210        1.24160
C          1.79130       -0.35860        1.30690
C          2.27050       -0.88550       -0.05190
C          1.35370        0.07900       -0.78670
C         -0.00860        0.00110       -0.00390
O          0.38510       -0.56080        1.26250
H         -0.41430        1.98110        1.01670
H         -0.46290        2.00930       -0.78250
H          2.11520        2.26900       -0.42110
H          2.19020       -0.77040        2.23180
H          3.33410       -0.70620       -0.22050
H          2.02500       -1.93830       -0.20440
H          1.31930        0.10130       -1.87240
H         -0.87340       -0.54380       -0.38440
