18
gdb 12531	3.40413	1.95482	1.31317	0.9788	77.21	-0.2169	-0.0268	0.1901	950.5423	0.154584	-347.808496	-347.800995	-347.800051	-347.8403	28.88
C         -0.23780        1.46270       -0.00720
C          0.05590       -0.03400        0.01960
O          0.71650       -0.34980       -1.21140
C          0.50900       -1.65110       -1.69750
C          0.96170       -2.78680       -0.82510
C          1.40800       -2.75590        0.43950
C          1.48660       -1.62130        1.35410
C          0.89440       -0.42880        1.21170
H          0.69630        2.02760       -0.08450
H         -0.86410        1.71350       -0.86640
H         -0.75430        1.77000        0.90730
H         -0.89760       -0.58770        0.05650
H         -0.55120       -1.81230       -1.97200
H          1.07090       -1.69300       -2.64080
H          0.93910       -3.75030       -1.33300
H          1.74280       -3.70130        0.86150
H          2.06320       -1.79760        2.25940
H          1.02670        0.32210        1.98670
