15
gdb 21313	7.28365	1.18646	1.03356	3.6593	62.78	-0.2547	0.0166	0.2714	1098.7737	0.120708	-395.993461	-395.98588	-395.984936	-396.02665	25.856
C         -0.03500        1.32280        0.05470
O          0.01580       -0.08580       -0.00570
C          0.66670       -0.56600       -1.16070
C          0.65130       -2.05950       -1.10610
N          1.16260       -2.89810       -1.98970
C          0.86710       -4.11430       -1.44970
N          0.21270       -4.08120       -0.30060
N          0.08410       -2.74740       -0.09840
H          0.97320        1.76320        0.07010
H         -0.58530        1.74430       -0.79980
H         -0.55350        1.58910        0.97800
H          0.16150       -0.22140       -2.07750
H          1.70690       -0.20600       -1.21370
H          1.14250       -5.04770       -1.91740
H         -0.38080       -2.37750        0.71410
