18
gdb 8190	2.70483	2.24465	1.62636	1.2204	67.84	-0.2228	0.0609	0.2836	869.586	0.151828	-384.893086	-384.884856	-384.883912	-384.924871	31.618
C         -0.00080        1.53330        0.02570
C          0.03820        0.01890        0.06940
C         -1.19020       -0.67070       -0.50200
C          1.32700       -0.74420       -0.17890
O          2.46590       -0.01950        0.29980
C          1.97110       -0.07890        1.66380
C          0.68330       -0.75560        1.20090
O         -0.03310       -1.67860        1.93440
H          0.97260        1.96500        0.26820
H         -0.26980        1.87600       -0.97970
H         -0.74610        1.93180        0.72300
H         -1.36610       -0.33980       -1.53110
H         -1.08540       -1.75870       -0.50180
H         -2.08120       -0.43180        0.08810
H          1.48160       -1.47910       -0.96150
H          2.60350       -0.73900        2.27300
H          1.90550        0.90660        2.13790
H          0.55280       -2.40810        2.16740
