22
gdb 6543	2.64262	1.8166	1.57333	1.3504	77.36	-0.2581	0.067	0.3251	983.2897	0.197653	-350.199021	-350.18938	-350.188436	-350.232556	37.396
C          0.35330        1.49770        0.19460
C          0.02130        0.00500        0.01650
C          0.38340       -0.75820        1.30030
O         -1.38810       -0.14950       -0.21800
C          0.69560       -0.54540       -1.25420
C          0.13620        0.01140       -2.55600
C          2.17730       -0.83970       -1.23660
C          1.18400       -1.97440       -1.31090
H          1.42830        1.64970        0.33080
H          0.02720        2.07960       -0.66990
H         -0.15500        1.89740        1.08020
H         -0.09090       -0.27030        2.15960
H          0.01380       -1.78460        1.25570
H          1.45970       -0.77410        1.49420
H         -1.85160        0.24680        0.52720
H          0.27840        1.09430       -2.63490
H          0.64370       -0.44500       -3.41150
H         -0.93300       -0.19460       -2.63810
H          2.74950       -0.58980       -2.12390
H          2.73120       -0.71440       -0.31240
H          1.08040       -2.61100       -0.44120
H          1.07310       -2.50100       -2.25290
