16
gdb 20730	3.32912	1.99062	1.26677	2.108	67.82	-0.1955	0.0459	0.2413	936.3563	0.132374	-376.120024	-376.111619	-376.110675	-376.152442	30.748
C         -0.05690        1.46750       -0.02890
C         -0.03980       -0.02600        0.03930
N         -0.06570       -0.75790       -1.06840
N         -0.03230       -2.04900       -0.62520
C          0.02210       -2.14150        0.72330
N         -0.00140       -3.34410        1.42500
C          0.02000       -0.84260        1.20240
N          0.08740       -0.52480        2.59050
H          0.84340        1.90440        0.42000
H         -0.11090        1.79080       -1.07050
H         -0.91680        1.88500        0.50810
H         -0.11230       -2.79710       -1.29110
H          0.69940       -4.00850        1.11650
H          0.13160       -3.14470        2.41150
H         -0.76000       -0.06810        2.91510
H          0.85430        0.10950        2.79240
