19
gdb 8111	2.90701	1.94687	1.45166	2.0402	72.13	-0.1958	0.075	0.2708	940.6711	0.163979	-365.005289	-364.99672	-364.995776	-365.037626	32.315
C         -0.06160        1.77040        0.80130
C          0.08470        0.26910        0.66470
C          1.20750       -0.51810       -0.00950
N          2.56160       -0.02410        0.20210
C          3.06690        1.13950       -0.49900
C          2.37860       -0.01630        1.67510
C          0.97890       -0.62540        1.48650
O          0.52860       -1.72440        2.19640
H         -0.34600        2.23100       -0.15100
H         -0.84180        2.01550        1.53170
H          0.85930        2.25070        1.13820
H         -0.85920       -0.24380        0.47590
H          0.99970       -1.22960       -0.80290
H          2.51840        2.07750       -0.31260
H          4.11460        1.30170       -0.22190
H          3.03820        0.94470       -1.57640
H          3.07270       -0.69500        2.18270
H          2.42510        0.97050        2.15660
H         -0.03980       -1.41190        2.90830
