16
gdb 5382	4.85184	1.53767	1.26724	0.6077	73.36	-0.2433	-0.0467	0.1966	971.3664	0.13284	-342.841304	-342.83421	-342.833266	-342.873311	26.001
C         -0.23180        1.53010        0.09430
C          0.09350        0.03310       -0.03540
C          0.77000       -0.51410        1.19570
C          0.14090       -1.42850        2.04830
N          0.71860       -1.90960        3.14880
C          1.95140       -1.46900        3.40370
C          2.59010       -0.56040        2.56340
N          2.00930       -0.08140        1.46450
H          0.67930        2.09780        0.30070
H         -0.67660        1.91180       -0.82930
H         -0.93730        1.71140        0.91160
H         -0.82070       -0.53670       -0.23320
H          0.76100       -0.11720       -0.89140
H         -0.86410       -1.78220        1.82850
H          2.44230       -1.84910        4.29580
H          3.59720       -0.21260        2.78160
