16
gdb 8013	3.5618	1.92521	1.5411	2.2543	64.74	-0.2459	-0.0282	0.2177	852.2667	0.129125	-383.729194	-383.721861	-383.720916	-383.760771	27.676
C         -0.14860        1.53660        0.17220
C          0.06340        0.05090        0.06350
C         -1.16220       -0.90650        0.03710
C         -0.42670       -1.80610        1.05230
O         -0.71360       -2.81820        1.62210
C          0.78660       -0.87000        1.11320
C          1.78450       -1.12390       -0.04000
O          1.02430       -0.31320       -0.95910
H          0.80080        2.05450        0.33480
H         -0.59060        1.92150       -0.75340
H         -0.82570        1.77570        0.99830
H         -2.07490       -0.48110        0.46950
H         -1.39640       -1.35020       -0.93350
H          1.17660       -0.57290        2.08610
H          2.77770       -0.69710        0.14240
H          1.89610       -2.16020       -0.37830
