15
gdb 12906	3.36429	1.8257	1.52973	3.2326	65.59	-0.2665	0.0298	0.2963	854.4875	0.119103	-362.645377	-362.63815	-362.637206	-362.676638	27.439
O         -0.07940        1.42320       -0.02830
C         -0.01720        0.04980       -0.06960
C          0.69390       -0.78130       -1.14530
C         -0.50090       -1.79440       -1.09240
C         -1.17780       -0.91610       -0.03330
C         -0.26940       -0.77710        1.18920
C          0.60450       -1.82520        1.63640
N          1.32720       -2.66660        1.96840
H          0.75240        1.76110        0.32420
H          0.73460       -0.24370       -2.09440
H          1.68740       -1.16310       -0.89650
H         -1.05980       -1.82890       -2.02860
H         -0.25870       -2.81270       -0.77940
H         -2.23830       -0.72400        0.07130
H         -0.71260       -0.18510        1.98370
