17
gdb 17633	3.49549	1.52635	1.2698	2.4927	64.57	-0.2458	-0.0327	0.2131	995.7909	0.141055	-400.989388	-400.98095	-400.980006	-401.02276	30.388
C          0.04340        1.36820        0.26550
C          0.00570       -0.11070       -0.02740
O          1.00780       -0.76590       -0.22470
C         -1.35550       -0.82390       -0.07960
O         -1.14850       -2.18450       -0.34180
C         -2.13520       -0.62940        1.21860
C         -3.06730       -1.68110        1.68120
N         -1.79010       -1.44730        2.38730
H          1.02320        1.77110        0.00670
H         -0.74240        1.90300       -0.27670
H         -0.13400        1.52770        1.33540
H         -1.93010       -0.35360       -0.89820
H         -0.18660       -2.27000       -0.46370
H         -2.36620        0.40870        1.44840
H         -3.95730       -1.40450        2.23870
H         -3.15150       -2.57320        1.06990
H         -1.13580       -2.16530        2.07770
