16
gdb 589	11.41382	1.64753	1.57691	1.6966	57.14	-0.2621	0.0961	0.3582	804.8416	0.142296	-271.616723	-271.60974	-271.608796	-271.64766	24.439
C          0.06600        1.51280        0.08300
C          0.12780       -0.01320       -0.01370
C          0.50790       -0.50980       -1.41540
C          0.57080       -2.01460       -1.49910
C          1.54980       -2.72350       -2.33150
O          1.71890       -2.64130       -0.91530
H          1.03410        1.96430       -0.16100
H         -0.67450        1.92540       -0.61150
H         -0.20680        1.83740        1.09190
H          0.85650       -0.40490        0.70560
H         -0.84350       -0.44000        0.26970
H         -0.22300       -0.14420       -2.15020
H          1.48270       -0.09780       -1.70380
H         -0.36520       -2.53240       -1.27640
H          1.32020       -3.71510       -2.72000
H          2.26460       -2.15050       -2.92140
