18
gdb 14969	4.30788	1.39047	1.09825	1.6189	70.46	-0.2326	0.0295	0.2621	1073.4573	0.154473	-384.93759	-384.929605	-384.92866	-384.970129	29.416
O          0.07630        1.41840       -0.09020
C          0.00450        0.01170        0.04330
C         -1.42810       -0.44260        0.05940
C         -2.46680        0.39010        0.09530
C         -3.88610       -0.11160        0.07600
C         -3.92070       -1.57680       -0.36110
O         -2.95120       -2.33900        0.34010
C         -1.63250       -1.94000        0.03190
H          0.99620        1.67990        0.00370
H          0.53410       -0.49520       -0.78430
H          0.49820       -0.32600        0.97230
H         -2.29240        1.45990        0.13410
H         -4.34160       -0.00280        1.07020
H         -4.49700        0.49160       -0.60800
H         -4.88720       -2.04110       -0.14640
H         -3.74340       -1.64540       -1.44760
H         -1.32910       -2.33700       -0.95620
H         -0.98860       -2.42820        0.77510
