18
gdb 12739	2.68745	2.24928	1.85382	1.3614	67.36	-0.2416	0.0639	0.3055	840.9331	0.152685	-384.909707	-384.901922	-384.900978	-384.941426	29.471
C         -0.50500        1.40770        0.00270
C          0.09290        0.02540       -0.12740
O          1.29090       -0.01500       -0.96210
C          2.05770       -0.66370        0.06360
C          2.76410        0.32770        0.99440
O          1.58130        0.43510        1.82990
C          0.88200       -0.57740        1.06470
C          0.27370       -1.65000        1.92470
H         -0.73340        1.81150       -0.98830
H         -1.43750        1.36660        0.57620
H          0.18920        2.07860        0.51280
H         -0.64710       -0.68580       -0.52300
H          2.57510       -1.56130       -0.28060
H          3.60990       -0.08250        1.56110
H          3.04600        1.27860        0.53070
H         -0.50450       -1.22010        2.56580
H         -0.18300       -2.43150        1.30990
H          1.02740       -2.10580        2.57280
