13
gdb 20616	3.51065	1.90942	1.2463	2.1057	63.45	-0.2739	-0.0766	0.1973	899.0888	0.096091	-394.799984	-394.792707	-394.791763	-394.832875	24.877
C         -0.07040        1.52030        0.10660
C         -0.09240        0.03480       -0.02890
C          0.04840       -0.76620       -1.15370
N         -0.05880       -2.03060       -0.66000
N         -0.24950       -2.03010        0.65390
N         -0.27160       -0.78000        1.04740
C          0.26120       -0.51650       -2.57120
O          0.35550       -1.40480       -3.39240
H          0.08380        2.01150       -0.85660
H         -1.01280        1.88050        0.53040
H          0.73020        1.83150        0.78450
H         -0.00700       -2.89240       -1.18320
H          0.33250        0.55190       -2.85610
