18
gdb 6258	4.20634	1.07092	0.95207	2.5889	75.55	-0.2634	-0.0561	0.2072	1263.3922	0.150098	-347.794481	-347.784972	-347.784027	-347.829061	33.915
C          0.14640        1.65390       -0.09060
C          0.04220        0.12440       -0.01020
C          0.70260       -0.54000       -1.22500
C          0.65260       -0.41400        1.29140
C         -0.14510       -0.09990        2.54620
O         -1.23640        0.42820        2.53960
C          0.48740       -0.50500        3.79420
C          1.02720       -0.84660        4.81450
H          1.19550        1.97480       -0.09000
H         -0.31140        2.02540       -1.01300
H         -0.36030        2.13030        0.75180
H         -1.02180       -0.14030       -0.00290
H          1.77570       -0.31650       -1.26470
H          0.59020       -1.62920       -1.19990
H          0.25620       -0.17820       -2.15680
H          0.75090       -1.50900        1.25560
H          1.67740       -0.04400        1.43610
H          1.48800       -1.14080        5.72630
