24
gdb 5886	3.8982	0.84759	0.8354	1.3123	81.91	-0.2616	0.075	0.3366	1526.604	0.220633	-351.414616	-351.403808	-351.402864	-351.450229	39.526
C         -0.08740        1.56100        0.09300
C          0.01010        0.02500        0.04550
C          0.67910       -0.49050        1.33310
C         -1.41270       -0.55910       -0.04140
C          0.79140       -0.44180       -1.20940
C          2.24590        0.02600       -1.33440
C          2.90960       -0.49420       -2.60340
O          4.24500       -0.01120       -2.63090
H          0.89390        2.03120        0.20810
H         -0.54420        1.95670       -0.82140
H         -0.70570        1.88260        0.93830
H          0.08130       -0.22430        2.21180
H          0.77810       -1.58190        1.31770
H          1.67710       -0.06520        1.47570
H         -1.93000       -0.21130       -0.94260
H         -1.39080       -1.65430       -0.07020
H         -2.01390       -0.26040        0.82440
H          0.76990       -1.54050       -1.23430
H          0.23590       -0.11100       -2.09850
H          2.30570        1.11990       -1.34610
H          2.84080       -0.31230       -0.47900
H          2.88490       -1.59660       -2.61140
H          2.34440       -0.15190       -3.48640
H          4.66660       -0.33880       -3.43050
