14
gdb 16510	3.9371	2.49047	1.9077	0.7126	60.68	-0.2193	-0.0031	0.2162	698.0848	0.107408	-382.479079	-382.473152	-382.472208	-382.5086	24.566
O         -0.06560        1.36680       -0.02950
C          0.01400       -0.01820       -0.09000
C          0.97180       -0.73610       -0.96660
C          0.54740       -1.99420       -1.15770
C         -0.67230       -2.19990       -0.29910
O         -0.16770       -2.19010        1.11410
C         -0.48560       -0.82470        1.18380
C         -1.28230       -0.78490       -0.07190
H          0.64360        1.68860        0.53700
H          1.90690       -0.30440       -1.30280
H          1.07840       -2.79360       -1.65680
H         -1.30780       -3.06720       -0.46670
H         -0.57640       -0.35490        2.15640
H         -2.25530       -0.39120       -0.33620
