22
gdb 16595	3.17778	1.63927	1.36386	0.0848	82.02	-0.2437	0.0893	0.3329	1046.852	0.200054	-313.049373	-313.040691	-313.039747	-313.081848	33.685
C         -0.11360        1.40780        0.19000
C          0.11240       -0.05240        0.52450
C          1.32720       -0.86400        0.15920
C          0.99080       -0.57950        1.62830
C          2.28980        0.22990        1.79210
C          3.23930       -0.32620        2.84880
C          2.63600       -0.06300        0.28070
C          3.89280       -0.87920       -0.00490
H          0.79550        2.00710        0.28220
H         -0.47660        1.51840       -0.83790
H         -0.86470        1.84650        0.85630
H         -0.79650       -0.64610        0.43140
H          1.24070       -1.79620       -0.39000
H          0.60610       -1.25950        2.38180
H          2.12810        1.29460        2.00120
H          3.39280       -1.40390        2.73690
H          4.21890        0.16120        2.80930
H          2.82620       -0.15790        3.84970
H          2.66440        0.84100       -0.34030
H          3.89680       -1.83030        0.53620
H          3.95380       -1.11200       -1.07390
H          4.80130       -0.33150        0.26650
