15
gdb 5019	3.32884	2.22812	1.34567	6.1442	71.07	-0.2124	-0.0085	0.2039	873.3665	0.121081	-362.729868	-362.722843	-362.721899	-362.760903	26.717
C         -0.02880        1.51040        0.01690
C         -0.00520        0.01200       -0.01970
C         -0.03590       -0.68950       -1.17890
N         -0.01380       -2.06240       -1.19930
C          0.04060       -2.77850       -0.03680
C          0.07410       -2.15350        1.16350
C          0.05390       -0.69720        1.27250
O          0.08310       -0.09560        2.34460
H          0.85840        1.89330        0.53220
H         -0.07330        1.94430       -0.98600
H         -0.88760        1.86410        0.59700
H         -0.07940       -0.21350       -2.15230
H         -0.03820       -2.54410       -2.08150
H          0.05440       -3.85620       -0.14980
H          0.11720       -2.72970        2.07950
