14
gdb 2139	4.02165	3.20405	1.8239	3.1249	59.85	-0.2092	0.0002	0.2094	676.1181	0.114102	-324.62378	-324.617181	-324.616237	-324.654241	23.883
C         -0.00660        1.46310        0.00530
N          0.01180        0.01870       -0.02600
C          0.05660       -0.78300       -1.17800
C          0.06350       -2.08570       -0.87920
C          0.01980       -2.22410        0.61910
C         -0.01310       -0.77030        1.11510
O         -0.05250       -0.35920        2.25410
H          0.89370        1.88490       -0.45600
H         -0.88650        1.86340       -0.51120
H         -0.04270        1.75970        1.05510
H          0.08010       -0.30160       -2.14600
H          0.09490       -2.90050       -1.58550
H         -0.86380       -2.75590        0.99050
H          0.89220       -2.73430        1.04370
