18
gdb 19292	3.37777	1.86113	1.47663	1.3372	67.45	-0.2421	0.0729	0.315	908.4314	0.153564	-384.895555	-384.887573	-384.886629	-384.927893	29.823
C         -0.19080        1.32660       -0.07640
O          0.17990       -0.03230        0.08470
C          0.73580       -0.59920       -1.08130
C          1.34650       -1.97660       -0.87890
C          0.30820       -2.93900       -0.37860
C          0.31600       -2.60100       -1.84080
C         -0.30970       -1.22310       -2.08550
O         -1.66720       -1.01370       -1.78860
H          0.68120        1.94880       -0.32800
H         -0.95080        1.45180       -0.85830
H         -0.59990        1.66350        0.87920
H          1.41740        0.11160       -1.56650
H          2.40690       -2.17750       -0.79570
H          0.68110       -3.92850       -0.13570
H         -0.48610       -2.59870        0.27830
H          0.47860       -3.35650       -2.59970
H         -0.15280       -0.88040       -3.11130
H         -1.73750       -0.98390       -0.82670
