18
gdb 10565	2.84527	1.4349	1.08394	2.547	68.94	-0.2532	-0.0204	0.2328	1113.6865	0.152266	-384.936392	-384.927601	-384.926657	-384.970026	31.663
O         -0.03800        1.49640        0.26650
C         -0.03420        0.07910        0.34240
C         -1.32570       -0.53050       -0.21870
C         -1.38230       -2.04150       -0.10140
C         -1.66460       -2.69260        1.25130
C         -2.71210       -2.73690        0.19440
C         -0.48740       -2.81270       -0.99860
O          0.25280       -2.32970       -1.82140
H          0.02710        1.73790       -0.66290
H          0.83450       -0.35100       -0.17260
H          0.05890       -0.16120        1.40720
H         -2.17670       -0.08160        0.30510
H         -1.41550       -0.25760       -1.27750
H         -1.13650       -3.60840        1.49600
H         -1.79700       -2.01510        2.08720
H         -3.57610       -2.08860        0.28460
H         -2.91000       -3.68340       -0.29780
H         -0.55310       -3.91910       -0.86640
