14
gdb 18198	4.46408	1.77453	1.46042	2.378	63.06	-0.2575	0.0322	0.2896	843.1994	0.106493	-382.475902	-382.469094	-382.46815	-382.506989	25.599
C          0.08890       -1.22430        0.07350
C          0.04910       -0.02440        0.07960
C          0.01390        1.43230        0.03350
O         -0.62730        1.94390        1.20660
C         -0.06770        3.20730        1.55180
C          1.32020        3.21860        0.95130
O          2.06450        2.03290        1.25420
C          1.38340        2.10530        0.00560
H          0.12580       -2.28560        0.08390
H         -0.53180        1.75100       -0.87210
H         -0.65580        4.04090        1.13490
H         -0.07410        3.28430        2.64360
H          1.88690        4.13930        0.84580
H          1.98930        2.08350       -0.89510
