14
gdb 11164	4.01062	1.58547	1.38578	3.552	62.93	-0.2824	0.0017	0.2841	895.5916	0.108807	-378.753966	-378.747019	-378.746075	-378.785588	25.357
N         -0.03020        1.28610       -0.09350
C         -0.05000        0.02980       -0.04970
C         -1.27120       -0.85990       -0.10740
C         -0.69310       -2.22130       -0.51160
C          0.73020       -2.14470        0.08720
O          1.08230       -0.75810        0.05220
C          0.78540       -2.64730        1.47230
N          0.81600       -3.05690        2.55200
H          0.92380        1.64230       -0.01720
H         -1.72690       -0.90280        0.88790
H         -2.01330       -0.46140       -0.79840
H         -1.25580       -3.07740       -0.13890
H         -0.60960       -2.30440       -1.59840
H          1.46940       -2.68990       -0.50540
