15
gdb 2990	5.41012	1.8293	1.67156	2.1647	57.64	-0.2653	-0.0364	0.229	775.3701	0.123958	-345.646841	-345.639691	-345.638747	-345.678239	25.927
O         -0.35150        1.32810        0.08920
C         -0.07440       -0.04340        0.01180
C          0.84740       -0.31740       -1.16230
O          1.25230        0.57060       -1.87360
C          0.56470       -0.57920        1.29130
C          1.59820        0.24610        2.01390
C          0.22670        0.05590        2.61300
H          0.13480        1.73210       -0.64760
H         -1.00620       -0.60950       -0.17350
H          1.14030       -1.37470       -1.32420
H          0.70530       -1.65700        1.28520
H          2.44210       -0.26460        2.46340
H          1.82020        1.22520        1.60520
H         -0.44040        0.90910        2.59090
H          0.11990       -0.59200        3.47570
