15
gdb 18215	4.44742	1.68296	1.32267	5.5259	71.54	-0.2043	-0.0284	0.1759	897.5887	0.120235	-362.670889	-362.664105	-362.66316	-362.701807	25.908
O         -0.11780       -0.05230       -0.04210
C         -0.02890        1.16120        0.01860
C          1.20540        1.90100        0.05260
C          1.31770        3.25970        0.04730
N          2.60890        3.66920       -0.10700
C          3.50130        2.53550       -0.07320
C          3.50060        1.67010        1.16210
C          2.58010        1.31680        0.01020
H         -0.94300        1.80000        0.04850
H          0.52350        3.99130        0.12820
H          2.91630        4.60430        0.10140
H          4.37790        2.60150       -0.70740
H          4.37210        1.04020        1.29910
H          3.06390        2.05950        2.07550
H          2.75460        0.40570       -0.54790
