12
gdb 1826	6.49521	2.26687	1.69974	1.1199	52.81	-0.2524	0.0051	0.2575	676.3686	0.092687	-356.758284	-356.752146	-356.751201	-356.788406	22.247
N         -0.11200        1.29390        0.03770
C         -0.00750        0.03080        0.00860
C         -1.20770       -0.91330       -0.01130
N         -0.58310       -2.22060        0.07350
C          0.78630       -2.16590       -0.01750
O          1.57390       -3.07780       -0.07660
N          1.10260       -0.79620       -0.01580
H          0.79990        1.75240        0.04290
H         -1.87050       -0.70390        0.83410
H         -1.77900       -0.77100       -0.93650
H         -1.05700       -3.08550       -0.11950
H          2.06060       -0.48770       -0.01450
