19
gdb 14150	4.27143	1.48348	1.30118	1.5877	71.2	-0.2373	0.076	0.3133	1003.0032	0.166659	-365.043029	-365.035216	-365.034271	-365.075495	29.393
C         -0.04070        1.50650       -0.22720
C          0.03390        0.01600       -0.00210
N          1.37500       -0.60180       -0.03830
C          0.60770       -0.60560        1.21700
C          1.19650        0.13980        2.41990
C          0.83200       -0.77940        3.60160
O          0.67830       -2.08040        3.04480
C          0.02700       -1.89610        1.80100
H          0.81440        2.01120        0.22900
H         -0.03260        1.73610       -1.29810
H         -0.96020        1.92320        0.19890
H         -0.77380       -0.54750       -0.47270
H          1.33660       -1.51610       -0.48360
H          2.27890        0.22280        2.29610
H          0.79060        1.14750        2.54190
H          1.60280       -0.83530        4.37360
H         -0.10920       -0.45360        4.07460
H         -1.06350       -1.79840        1.94520
H          0.21330       -2.77800        1.17930
