15
gdb 1746	5.0528	1.6871	1.51332	1.7151	57.58	-0.2469	-0.026	0.2209	828.0421	0.122494	-345.64287	-345.635217	-345.634273	-345.675205	27.249
O         -0.34250        1.38010       -0.21900
C         -0.09530        0.00670       -0.04600
C          1.10310       -0.51150       -0.83280
C          2.41230        0.05340       -0.32790
O          3.37790       -0.60190       -0.03170
C         -0.44970       -0.61160        1.28280
C         -1.32420       -0.84360        0.06470
H          0.19520        1.86870        0.41280
H          1.16170       -1.60250       -0.79980
H          0.98040       -0.19860       -1.87930
H          2.43210        1.16540       -0.24180
H          0.15600       -1.43220        1.65220
H         -0.83530        0.05040        2.05040
H         -2.27050       -0.31700        0.02700
H         -1.32380       -1.82480       -0.39670
