22
gdb 13143	3.57308	1.19041	0.99684	0.97	79.07	-0.2497	0.083	0.3327	1270.8077	0.19961	-350.186593	-350.177317	-350.176373	-350.220696	33.778
C          0.30010        1.34820       -0.15890
O          0.09040       -0.03310       -0.00420
C          0.78360       -0.57590        1.10120
C          0.49150       -2.06610        1.15540
C          1.18550       -2.87150        0.02010
C          2.29110       -3.29100        1.02570
C          1.34440       -2.87820        2.18840
C          1.92570       -2.21090        3.42810
H          1.36350        1.58650       -0.32410
H         -0.27250        1.67250       -1.03170
H         -0.04230        1.91680        0.72090
H          1.86660       -0.38630        0.99640
H          0.46130       -0.08160        2.03410
H         -0.59200       -2.19440        1.23560
H          0.58140       -3.72160       -0.30760
H          1.48660       -2.30120       -0.86140
H          2.63660       -4.32780        1.00180
H          3.16870       -2.63880        0.96820
H          0.75890       -3.75160        2.49730
H          2.53280       -1.33510        3.17550
H          1.13900       -1.88480        4.11790
H          2.57140       -2.90900        3.97280
