19
gdb 15385	3.68622	1.13407	0.93666	0.8513	79.03	-0.2283	0.0349	0.2632	1279.7511	0.163602	-327.864689	-327.855665	-327.85472	-327.898565	32.974
C          0.19560        1.51580        0.10590
C          0.00320        0.00190        0.22500
C         -1.36490       -0.45480       -0.28160
N         -1.47970       -1.90950       -0.18960
C         -2.01610       -2.45470        1.04400
C         -2.82600       -2.51050       -0.21880
C         -4.01430       -1.71210       -0.35180
C         -5.01740       -1.06550       -0.50530
H          1.17970        1.81960        0.47500
H          0.11500        1.84610       -0.93570
H         -0.55910        2.06090        0.68380
H          0.78060       -0.52650       -0.33820
H          0.11780       -0.30590        1.27220
H         -2.16450        0.06270        0.27350
H         -1.48390       -0.18030       -1.33660
H         -1.54520       -3.35920        1.41980
H         -2.36020       -1.75860        1.80760
H         -2.85920       -3.45300       -0.76110
H         -5.90380       -0.49430       -0.63000
