11
gdb 20753	7.31239	1.36096	1.15565	3.3847	60.35	-0.3106	-0.0885	0.2222	947.9823	0.072479	-393.592991	-393.586273	-393.585328	-393.624161	23.275
C          0.00710        1.49080        0.01250
C         -0.00190        0.00260       -0.00440
N         -0.08760       -0.69300       -1.11280
O         -0.06260       -2.01880       -0.68810
C          0.03690       -1.97070        0.64760
N          0.07870       -0.76970        1.13640
C          0.08330       -3.20300        1.35790
N          0.12060       -4.20660        1.92940
H          0.93060        1.85540        0.47110
H         -0.07110        1.87940       -1.00340
H         -0.82900        1.86440        0.61030
