22
gdb 13623	3.44569	1.19023	1.04045	1.4038	78.54	-0.2525	0.0793	0.3318	1246.0092	0.198671	-350.194828	-350.185109	-350.184165	-350.229255	35.973
C          0.00890        1.54910        0.17640
C         -0.10000        0.02190        0.12220
C         -1.50700       -0.51110       -0.21000
C         -1.97580       -0.12080       -1.62050
C         -1.55170       -2.02180       -0.04540
C         -1.74730       -2.64800        1.32280
C         -2.83460       -2.72920        0.27850
O         -3.97990       -1.93350        0.40750
H          1.01290        1.85880        0.48390
H         -0.19190        2.01070       -0.79520
H         -0.70270        1.96970        0.89630
H          0.61510       -0.37080       -0.61450
H          0.20620       -0.39270        1.09070
H         -2.21480       -0.07900        0.50820
H         -2.98490       -0.49950       -1.80360
H         -1.99500        0.96440       -1.75700
H         -1.31040       -0.54060       -2.38520
H         -0.88800       -2.55830       -0.72120
H         -1.19990       -3.54670        1.58640
H         -1.92290       -1.96410        2.14780
H         -3.01030       -3.69660       -0.19250
H         -4.50930       -2.28900        1.12860
