16
gdb 13032	4.0064	1.39648	1.10094	2.9729	70.97	-0.2387	-0.0213	0.2173	1060.5314	0.128394	-346.578085	-346.569912	-346.568968	-346.611336	29.626
O          0.04700       -0.00300        0.00120
C         -0.02550        1.18960        0.03790
C         -1.17280        2.18400        0.28690
C         -0.08640        3.24440        0.63910
C          1.02360        2.32140        0.04260
C          2.32700        2.10940        0.82560
C          3.27920        1.24720        0.13730
C          4.06530        0.55380       -0.44980
H         -1.71460        2.41160       -0.63690
H         -1.89690        1.90300        1.05500
H         -0.19430        4.22580        0.17620
H          0.02670        3.37260        1.71880
H          1.25390        2.60700       -0.99040
H          2.78870        3.08820        1.01060
H          2.09220        1.68940        1.81230
H          4.75340       -0.07400       -0.95910
