16
gdb 14013	4.25385	1.34338	1.22395	2.94	66.59	-0.2578	-0.0403	0.2174	1015.0946	0.128997	-383.717477	-383.709929	-383.708984	-383.749807	27.598
O         -0.97680        1.05360        0.54460
C          0.01580        1.13060       -0.13420
C          1.07260        2.16440        0.05740
O          2.37250        1.81020       -0.45390
C          1.67740        2.83350       -1.11760
C          1.24180        2.81970       -2.58790
C          1.34080        4.37530       -2.56120
C          2.12690        4.29360       -1.21710
H          0.22440        0.42810       -0.97100
H          1.05970        2.68420        1.01420
H          2.01200        2.36170       -3.21530
H          0.27550        2.37710       -2.83690
H          1.85700        4.84470       -3.39930
H          0.36420        4.84830       -2.43960
H          1.83400        4.96970       -0.41120
H          3.20980        4.35820       -1.35860
