19
gdb 19358	3.86808	1.79135	1.53772	1.4815	74.18	-0.2156	0.0764	0.292	912.9446	0.165499	-327.843055	-327.835561	-327.834617	-327.874645	29.584
C          0.05350        1.55290        0.03870
C         -0.03980        0.02190        0.07220
C          0.75890       -0.61430        1.17910
C          0.27200       -1.74050        2.00390
N          0.40240       -0.40400        2.63150
C          1.86450       -0.08920        2.88680
C          2.89400       -1.10700        2.48630
C          2.24270       -0.24890        1.43410
H          1.07400        1.89510       -0.15970
H         -0.58950        1.96290       -0.74570
H         -0.26320        1.97420        0.99720
H         -1.08820       -0.27480        0.19080
H          0.29480       -0.39650       -0.88750
H         -0.77070       -2.01960        1.87800
H          0.90570       -2.56410        2.31050
H          2.06910        0.70870        3.58910
H          3.90490       -0.79210        2.72990
H          2.75820       -2.18030        2.55420
H          2.80480        0.41480        0.79110
