14
gdb 14332	4.5157	1.87131	1.58072	3.6259	56.9	-0.2649	0.0063	0.2712	793.0574	0.108592	-419.701724	-419.695536	-419.694592	-419.73245	23.187
O          0.08780        0.04610        0.27490
C         -0.01580        1.21340        0.05240
C         -1.27180        2.08440        0.11100
C         -0.76300        3.49950       -0.06880
O         -0.37130        4.13220        1.17060
C          1.01670        4.19060        0.76330
C          0.72030        3.34860       -0.48530
O          1.05650        1.97430       -0.34000
H         -1.95020        1.77180       -0.68930
H         -1.78350        1.94250        1.06480
H         -1.40220        4.14830       -0.67410
H          1.33700        5.21820        0.55250
H          1.69070        3.72970        1.49190
H          1.07150        3.70140       -1.45480
