23
gdb 6233	2.17637	1.97007	1.59187	1.1175	82.73	-0.2103	0.079	0.2893	1026.3396	0.208207	-330.312286	-330.301751	-330.300807	-330.346524	38.94
C         -2.52150       -3.09520        0.23380
N         -1.30040       -2.32770        0.05580
C         -0.83460       -1.90780       -1.27440
C          0.65300       -2.11730       -1.51890
C         -1.64380       -2.21760       -2.52590
C         -1.32550       -0.89290       -0.26550
C         -2.64080       -0.15640       -0.47700
C         -0.34820       -0.04740        0.53860
H         -3.35650       -2.83710       -0.43270
H         -2.29560       -4.15700        0.08760
H         -2.86900       -2.97160        1.26510
H          0.82950       -3.12300       -1.91880
H          1.03650       -1.39940       -2.25350
H          1.23390       -2.02310       -0.60170
H         -2.71880       -2.08470       -2.40990
H         -1.31900       -1.57370       -3.35060
H         -1.47010       -3.25440       -2.83750
H         -3.38140       -0.71500       -1.04800
H         -3.08970        0.09470        0.49140
H         -2.46100        0.78710       -1.00410
H         -0.05120        0.84870       -0.01880
H         -0.81960        0.28640        1.47070
H          0.54860       -0.60560        0.80680
