16
gdb 8827	3.06665	1.51743	1.15349	1.492	67.17	-0.2593	0.0044	0.2637	1066.2938	0.127246	-383.740214	-383.730833	-383.729889	-383.775237	32.097
C          0.79980        1.37620       -0.01690
O          0.88320       -0.04860       -0.15940
C          0.02350       -0.58960       -1.03830
O         -0.80010        0.03420       -1.65430
C          0.23850       -2.10790       -1.13770
C         -0.98070       -2.78990       -1.77940
C          1.47140       -2.37330       -1.87780
C          2.46800       -2.59630       -2.51070
H          1.00550        1.86950       -0.97000
H         -0.19550        1.67090        0.32470
H          1.55380        1.64400        0.72290
H          0.37260       -2.47140       -0.11120
H         -1.87540       -2.60930       -1.17820
H         -1.15530       -2.38900       -2.77900
H         -0.81160       -3.86650       -1.85160
H          3.35450       -2.79420       -3.06080
