22
gdb 10919	2.98682	1.83113	1.43899	0.3112	81.79	-0.241	0.0834	0.3244	1004.9109	0.199632	-313.055257	-313.046426	-313.045482	-313.087729	34.215
C         -0.45000        1.54730        0.34410
C         -0.11690        0.06770        0.18220
C          0.31540       -0.44520       -1.19850
C          1.65610        0.11820       -1.59060
C          1.60820       -1.02910       -0.61840
C          2.27600       -2.34950       -0.88110
C          1.22090       -0.52240        0.78560
C          2.19300        0.37750        1.54170
H          0.34400        2.19590       -0.03750
H         -1.36680        1.79600       -0.20230
H         -0.61220        1.80560        1.39650
H         -0.96110       -0.52250        0.55300
H         -0.34950       -0.87990       -1.93730
H          1.98810       -0.14760       -2.59000
H          1.96010        1.11680       -1.28740
H          2.25650       -2.59970       -1.94720
H          3.32740       -2.33740       -0.56760
H          1.78020       -3.16320       -0.33810
H          0.97170       -1.37850        1.42260
H          2.50330        1.24440        0.95080
H          1.74560        0.75230        2.46890
H          3.09930       -0.17510        1.81430
