20
gdb 14972	4.18595	1.45809	1.14795	1.0297	76.67	-0.2419	0.0257	0.2675	1087.1671	0.177771	-349.019728	-349.011638	-349.010694	-349.052148	30.676
C         -0.01890        1.56240        0.02410
C         -0.01130        0.03280       -0.02440
C          0.70860       -0.52950       -1.24600
C          0.82060       -2.05950       -1.23440
C          1.24420       -2.56890       -2.58700
C          1.18420       -1.79850       -3.67000
C          0.64230       -0.39710       -3.61390
O         -0.01470       -0.10270       -2.39790
H          1.00010        1.96100        0.08620
H         -0.48460        1.97070       -0.87620
H         -0.57260        1.92740        0.89440
H          0.46880       -0.37400        0.87420
H         -1.04040       -0.34750       -0.03300
H          1.72960       -0.10850       -1.29070
H          1.54470       -2.36770       -0.46910
H         -0.14210       -2.50250       -0.94090
H          1.61390       -3.58870       -2.65370
H          1.52360       -2.15320       -4.63960
H          1.45650        0.32860       -3.80160
H         -0.10140       -0.24280       -4.40550
