18
gdb 15346	6.27068	0.89996	0.85862	4.6483	73.29	-0.2633	0.0375	0.3008	1353.9066	0.15381	-343.980117	-343.971348	-343.970403	-344.014324	31.026
C         -0.09550        1.50740       -0.44570
C          0.01200        0.15290        0.26440
C         -1.32700       -0.54700        0.34540
N         -1.78320       -1.27450       -0.85140
C         -1.52940       -2.02120        0.38460
C         -0.38660       -3.02680        0.35030
C         -0.83390       -4.33950       -0.11710
N         -1.20680       -5.37290       -0.47480
H          0.87740        2.00450       -0.49820
H         -0.46690        1.37610       -1.46660
H         -0.78470        2.17750        0.08020
H          0.72840       -0.47890       -0.26970
H          0.40310        0.29230        1.28060
H         -2.08310        0.02470        0.88530
H         -2.77930       -1.15600       -1.00960
H         -2.39160       -2.37230        0.94850
H          0.40540       -2.67220       -0.31400
H          0.04700       -3.14430        1.35050
