16
gdb 7723	3.12159	1.89782	1.30393	3.6605	65.74	-0.2464	-0.0357	0.2106	920.0704	0.131052	-383.798038	-383.79084	-383.789896	-383.829851	26.987
O         -0.00240       -0.09390       -0.03780
C         -0.03340        1.11160       -0.04620
C         -1.32420        1.91620        0.00310
C         -1.36700        2.96430       -1.12450
C         -0.13700        3.89050       -1.09670
C          1.15450        3.08700       -1.14660
O          2.04270        3.30700       -1.93210
C          1.24340        1.95180       -0.12410
H         -2.16620        1.22320       -0.05120
H         -1.37000        2.42880        0.97470
H         -1.41640        2.45400       -2.09390
H         -2.27920        3.56130       -1.03740
H         -0.13800        4.59600       -1.93000
H         -0.14240        4.47030       -0.16250
H          1.37460        2.42220        0.86210
H          2.10730        1.31880       -0.32780
