20
gdb 5969	3.14465	1.26962	1.14197	1.3856	77.86	-0.2493	0.048	0.2973	1179.9419	0.172446	-348.967549	-348.95731	-348.956366	-349.003349	36.948
C         -0.16600        1.56130        0.01220
C          0.02260        0.05190        0.00170
O         -1.26930       -0.53180        0.01130
C         -1.36310       -1.96300        0.00460
C         -0.74900       -2.56760       -1.27550
C         -0.72480       -2.58110        1.26620
C         -2.80760       -2.23990        0.01680
C         -3.97840       -2.50750        0.02660
H          0.80470        2.06630        0.00530
H         -0.73330        1.88170       -0.86600
H         -0.71550        1.87170        0.90520
H          0.58890       -0.24950       -0.89170
H          0.60670       -0.25960        0.88020
H          0.33800       -2.44850       -1.28520
H         -0.97270       -3.63600       -1.32900
H         -1.16940       -2.07930       -2.15790
H         -1.12830       -2.10230        2.16160
H         -0.94750       -3.65010        1.31260
H          0.36210       -2.46200        1.25650
H         -5.01670       -2.73000        0.03530
