14
gdb 7066	6.84158	0.91971	0.857	4.9218	62.83	-0.3101	-0.0045	0.3056	1246.1029	0.105973	-378.744404	-378.735836	-378.734892	-378.778189	29.289
O         -0.17310        1.39740        0.01130
C         -0.02610        0.00030        0.00230
C          0.69180       -0.50670       -1.27020
C          0.02080       -0.08050       -2.49500
N         -0.50870        0.24520       -3.46820
C          0.71590       -0.52030        1.25540
C          0.06850       -0.10740        2.49730
N         -0.44230        0.20770        3.48390
H          0.69700        1.81360        0.00520
H         -1.04740       -0.39240        0.01000
H          1.72480       -0.13500       -1.28550
H          0.74960       -1.60120       -1.26140
H          0.77340       -1.61460        1.23370
H          1.74910       -0.14860        1.25490
