11
gdb 21740	5.57879	2.25676	1.60678	3.4942	56.63	-0.2361	-0.0152	0.2209	703.5414	0.074771	-397.384789	-397.37966	-397.378715	-397.413932	20.026
O         -0.07490        1.29480        0.00970
C          1.22980        1.80110        0.00000
C          2.16330        0.81410       -0.01430
C          1.41670       -0.41950       -0.01400
C          0.11090       -0.02200        0.00070
O         -0.77250       -1.00050        0.00380
N          0.00920       -2.20470       -0.01010
C          1.27290       -1.83280       -0.02040
H          1.28750        2.87590        0.00540
H          3.23110        0.96320       -0.02380
H          2.01970       -2.61450       -0.03190
