13
gdb 2869	7.96343	1.81594	1.50665	1.2613	65.38	-0.231	-0.0258	0.2052	771.0564	0.101347	-307.287454	-307.280885	-307.279941	-307.318107	23.545
C          0.07450       -1.17930       -0.04320
C         -0.01830        0.02140       -0.00890
C         -0.05710        1.43220        0.03380
C         -1.12200        2.24110        0.02940
C         -0.67860        3.67140        0.08600
O          0.74450        3.62540        0.12400
C          1.19950        2.27960        0.09480
H          0.13750       -2.23890       -0.07390
H         -2.15830        1.93370       -0.00880
H         -1.01370        4.24790       -0.79150
H         -1.06270        4.19300        0.97760
H          1.79620        2.05870        0.99240
H          1.84520        2.11370       -0.78040
