15
gdb 20922	3.34022	1.98428	1.3688	4.5833	62.93	-0.2321	0.0154	0.2475	891.8227	0.119514	-395.979275	-395.971585	-395.970641	-396.012103	27.407
C          0.00190        1.53130       -0.04010
C         -0.04290        0.00550        0.05090
N         -1.39660       -0.52210       -0.01480
N         -2.07720       -0.86510        1.11520
N         -3.25780       -1.26680        0.75270
C         -3.37270       -1.19010       -0.60270
C         -2.18060       -0.71060       -1.09720
O         -1.69510       -0.42510       -2.32380
H          1.03640        1.87840        0.03900
H         -0.40310        1.87800       -0.99480
H         -0.57800        1.98110        0.77010
H          0.53610       -0.44980       -0.75800
H          0.36370       -0.34440        1.00200
H         -4.27070       -1.47780       -1.12490
H         -2.35940       -0.65060       -2.98280
