17
gdb 3021	5.42747	1.56668	1.31654	2.5836	60.39	-0.2534	0.0657	0.3191	918.6232	0.147887	-346.832402	-346.824584	-346.82364	-346.864458	28.675
O          0.09020        1.38030        0.00390
C          0.03110       -0.02070        0.15220
C         -1.40210       -0.53130       -0.02720
O         -1.92640        0.00380       -1.25320
C         -1.50340       -2.03380        0.04140
C         -1.77540       -2.71650        1.36150
C         -2.83650       -2.69090        0.29290
H         -0.50060        1.57740       -0.73550
H          0.68540       -0.53330       -0.57820
H          0.40190       -0.26910        1.15250
H         -2.03020       -0.08220        0.75170
H         -1.56810       -0.52170       -1.97790
H         -0.82610       -2.55660       -0.63270
H         -1.26770       -3.65200        1.56710
H         -1.91800       -2.08810        2.23450
H         -3.69240       -2.04080        0.43860
H         -3.06150       -3.61240       -0.23210
