15
gdb 12715	3.02492	2.30757	1.72813	5.0056	60.59	-0.239	0.0072	0.2462	793.4702	0.119106	-399.793877	-399.786813	-399.785869	-399.825	26.428
C         -0.14390        1.49450        0.08150
C          0.05010        0.00370        0.03790
N         -1.15000       -0.88240        0.13150
C         -0.52850       -1.66720        1.23870
C          0.80040       -0.92300        1.03150
O          1.59930       -1.46220       -0.06360
C          1.01830       -0.61660       -0.99220
O          1.27860       -0.51860       -2.14540
H          0.81560        2.01970        0.07780
H         -0.70580        1.82070       -0.80030
H         -0.70020        1.79410        0.97580
H         -1.98380       -0.37800        0.40970
H         -0.95960       -1.46590        2.22630
H         -0.50440       -2.74690        1.06680
H          1.42490       -0.62620        1.87170
