12
gdb 21584	6.05196	1.64379	1.2943	4.3305	60.81	-0.2284	-0.0673	0.1611	857.1968	0.085761	-410.860843	-410.854421	-410.853477	-410.891253	24.529
N         -0.04010        1.37520       -0.08270
C         -0.02370       -0.00710       -0.03480
C         -1.19890       -0.78130       -0.07310
N         -1.13580       -2.09720       -0.08680
C          0.10310       -2.61190       -0.07440
O          0.21990       -3.94920       -0.09870
N          1.24140       -1.93120       -0.03490
N          1.16830       -0.60560       -0.00530
H          0.85090        1.78610        0.16060
H         -0.82230        1.82700        0.36660
H         -2.18480       -0.32030       -0.09020
H         -0.67860       -4.30290       -0.12480
