18
gdb 5934	3.91375	1.02642	0.98244	2.7465	73.	-0.2472	0.0356	0.2828	1281.2209	0.150172	-384.91528	-384.905067	-384.904123	-384.951126	35.686
C          0.02930        1.46840       -0.01640
C          0.03540        0.01300        0.01280
C          0.04380       -1.19150        0.03740
C          0.05630       -2.65790        0.06660
C         -1.35780       -3.23000       -0.11780
O          0.93900       -3.18360       -0.94150
C          0.69310       -3.15800        1.38380
O          0.81650       -4.56270        1.39230
H          0.90000        1.85700       -0.55590
H         -0.86890        1.85560       -0.50980
H          0.05660        1.88340        0.99710
H         -1.75020       -2.97040       -1.10620
H         -1.32240       -4.31630       -0.01410
H         -2.04050       -2.82160        0.63260
H          0.60850       -2.90420       -1.80130
H          1.66640       -2.66070        1.50100
H          0.05850       -2.87820        2.22900
H          1.27780       -4.78840        0.57500
