19
gdb 17284	4.83598	1.10518	1.02795	1.7716	72.09	-0.2268	0.0792	0.306	1190.1296	0.164981	-365.0034	-364.995062	-364.994118	-365.036696	31.017
O         -0.00320        1.37950        0.10580
C         -0.02880       -0.02010        0.15180
C         -0.74150       -0.71560        1.28490
C         -1.34900       -0.68200       -0.10700
C         -2.58250        0.14370       -0.39450
N         -3.79360       -0.65040       -0.19620
C         -4.39680       -0.60110        1.13050
C         -5.03110        0.09930       -0.02060
H          0.60380        1.68650        0.78700
H          0.85920       -0.50120       -0.25860
H         -0.34340       -1.64860        1.66870
H         -1.19470       -0.07190        2.03210
H         -1.31200       -1.61120       -0.66790
H         -2.57290        1.05940        0.21910
H         -2.57170        0.46520       -1.44350
H         -4.80330       -1.53680        1.50400
H         -3.92200        0.02200        1.88680
H         -4.97540        1.18720       -0.02950
H         -5.90990       -0.31450       -0.50740
