12
gdb 16089	4.80409	1.83641	1.57158	2.9931	59.39	-0.2781	-0.019	0.2591	774.0791	0.08525	-377.521877	-377.515825	-377.514881	-377.552057	22.792
N         -0.00200       -1.13670       -0.03730
C         -0.00120        0.01900        0.00480
C          0.03570        1.44830        0.02420
C          0.37790        2.28280       -1.18560
C          1.28990        2.35140        0.01100
N          1.01430        3.38080        0.97560
C         -0.15460        3.15360        1.41930
O         -0.82750        2.05450        0.97560
H          0.74180        1.73100       -2.04430
H         -0.26190        3.13120       -1.40390
H          2.30310        1.97480       -0.04620
H         -0.69840        3.75300        2.13790
