16
gdb 8340	4.95256	1.39417	1.32524	1.455	69.84	-0.2383	0.0458	0.2841	957.1543	0.129118	-346.501558	-346.49424	-346.493296	-346.533426	28.073
C         -0.62470       -0.51270       -1.04170
C         -0.10820        0.15870       -0.18970
C          0.53770        0.98440        0.82250
C          1.65510        1.82370        0.24870
C          3.02020        1.39230       -0.34800
C          3.01210        2.92280       -0.13300
C          1.60000        3.00390       -0.75610
O          2.38530        2.70660        1.19480
H         -1.08960       -1.11070       -1.78570
H         -0.19320        1.65380        1.29330
H          0.95020        0.35630        1.62220
H          3.66370        0.83220        0.33180
H          3.03550        1.01100       -1.37140
H          3.83490        3.63450       -0.18560
H          1.48550        2.77010       -1.81680
H          0.99960        3.85570       -0.43370
