16
gdb 9923	3.25155	1.4971	1.45412	4.9009	66.01	-0.2493	0.0295	0.2787	942.0939	0.130154	-379.913551	-379.904983	-379.904039	-379.946365	31.158
C         -0.02820        1.54620        0.08810
C          0.01390        0.02840        0.02200
C         -1.14190       -0.64270        0.55310
N         -2.06590       -1.19160        0.98410
C          0.69270       -0.70660       -1.14720
N          1.35830        0.11180       -2.13090
C          1.36160       -0.70840        0.20070
O          2.51220        0.03660        0.34980
H          0.96580        1.96290       -0.07400
H         -0.71510        1.96370       -0.65470
H         -0.36920        1.86420        1.07660
H          0.19670       -1.61790       -1.47610
H          1.87370       -0.47200       -2.78160
H          0.69940        0.66080       -2.67310
H          1.35430       -1.61060        0.80260
H          2.66640        0.44800       -0.51800
