15
gdb 13064	4.24496	1.13926	0.96621	3.5048	71.82	-0.2349	0.0296	0.2645	1203.3322	0.11794	-362.659884	-362.651311	-362.650367	-362.695149	28.941
C          0.00750        1.53060       -0.03950
C          0.04690        0.07650        0.00410
C          0.07870       -1.12710        0.03180
C          0.08960       -2.57070        0.06890
C          0.16370       -3.27410        1.46850
N         -1.10710       -3.91970        1.13960
C         -1.29550       -3.30730       -0.07160
O         -2.17070       -3.34590       -0.88820
H          0.75850        1.92890       -0.73050
H         -0.97300        1.88970       -0.37100
H          0.20250        1.96350        0.94800
H          0.81390       -2.98680       -0.63860
H          1.00220       -3.96490        1.59760
H          0.11240       -2.58190        2.31290
H         -1.69920       -4.54840        1.66140
