18
gdb 10190	2.1406	1.59104	0.96479	3.2958	69.5	-0.2511	0.0187	0.2698	1217.3125	0.152823	-381.120203	-381.110651	-381.109707	-381.155028	33.008
C         -0.00530        1.49980        0.00170
C          0.15430       -0.00800        0.06570
O          0.53530       -0.46930       -1.22810
C          0.68730       -1.86620       -1.33250
C          0.78380       -2.20780       -2.82310
N         -0.48220       -1.86080       -3.45920
C          1.88690       -2.33470       -0.60120
N          2.82260       -2.69510       -0.02690
H          0.93580        1.97360       -0.29060
H         -0.77290        1.77730       -0.72640
H         -0.29970        1.88820        0.98080
H          0.92120       -0.28830        0.80230
H         -0.78840       -0.49180        0.36560
H         -0.19070       -2.38230       -0.91360
H          1.66950       -1.69310       -3.22880
H          0.95350       -3.28480       -2.92110
H         -0.60920       -0.85500       -3.40700
H         -0.45400       -2.10590       -4.44330
