22
gdb 7579	3.04565	1.49996	1.41362	1.9407	77.01	-0.2421	0.066	0.3082	1047.7314	0.198859	-350.192933	-350.183602	-350.182658	-350.226636	34.769
C         -0.23110        1.48150        0.02410
C          0.07670       -0.02260       -0.01740
C          0.79690       -0.40200       -1.31980
C          0.83070       -0.50600        1.23690
C          2.21540        0.11630        1.42380
C         -0.00660       -0.50680        2.54520
O          0.18800       -1.92210        2.73000
C          0.83280       -2.04500        1.44780
H          0.68110        2.08270       -0.05180
H         -0.87920        1.76540       -0.81130
H         -0.74250        1.76440        0.95040
H         -0.88700       -0.55190       -0.01270
H          1.73880        0.14480       -1.43450
H          1.02410       -1.47270       -1.35930
H          0.17380       -0.16410       -2.18800
H          2.16030        1.20500        1.52370
H          2.68650       -0.27430        2.33160
H          2.87910       -0.11220        0.58380
H          0.39520        0.07690        3.38280
H         -1.06850       -0.25510        2.41340
H          0.21620       -2.60920        0.73370
H          1.81570       -2.52610        1.52560
