17
gdb 14921	4.47273	1.46232	1.17609	4.9675	68.82	-0.2715	0.0187	0.2902	1005.8535	0.144316	-363.886394	-363.879196	-363.878252	-363.917815	27.364
N         -0.01220       -1.14800       -0.06490
C          0.01560        0.00570       -0.02650
C         -0.00680        1.47390        0.03700
C         -0.76640        1.97400        1.28070
C         -0.69420        3.50620        1.34120
C          0.76270        3.97580        1.22530
C          1.42020        3.34710       -0.00310
O          1.33540        1.92490        0.02300
H         -0.53020        1.83460       -0.86690
H         -1.80220        1.62240        1.24220
H         -0.29860        1.53290        2.16750
H         -1.28210        3.93030        0.51580
H         -1.14900        3.86740        2.26870
H          0.81900        5.06750        1.15380
H          1.32320        3.67620        2.11880
H          0.94760        3.72950       -0.92410
H          2.48780        3.57480       -0.05280
