15
gdb 2752	4.41408	2.27405	1.70695	4.5663	61.16	-0.2503	0.0152	0.2655	743.6559	0.126212	-304.689512	-304.682546	-304.681601	-304.72043	25.196
C         -0.15300        1.54940       -0.02720
C         -0.02150        0.03360       -0.04340
C          1.19960       -0.50970       -0.83610
N          1.94340       -0.63410        0.43930
C          0.68360       -0.59910        1.20810
C          0.72620        0.16660        2.45510
N          0.73550        0.77080        3.44050
H          0.80450        2.02350        0.20790
H         -0.48240        1.91040       -1.00690
H         -0.88380        1.87710        0.71820
H         -0.97620       -0.43770       -0.28280
H          0.98670       -1.46440       -1.33610
H          1.66250        0.17290       -1.55610
H          2.50470       -1.46940        0.56140
H          0.26010       -1.58820        1.43520
