17
gdb 1244	6.94554	1.14114	1.03888	1.487	66.62	-0.2539	0.0595	0.3134	1119.7842	0.145642	-309.690179	-309.681525	-309.68058	-309.723169	31.127
C          0.02340        1.55890        0.05430
C         -0.00080        0.03100        0.02640
O          0.72040       -0.51890        1.12860
C         -1.42840       -0.52550       -0.04110
C         -1.45560       -2.06460       -0.11530
C         -2.80590       -2.61180       -0.10360
C         -3.93050       -3.03670       -0.09030
H          1.05300        1.92040        0.12100
H         -0.43730        1.98060       -0.84470
H         -0.53090        1.94000        0.92150
H          0.55440       -0.31790       -0.85420
H          0.32000       -0.17790        1.93670
H         -1.98810       -0.19530        0.84450
H         -1.94710       -0.10470       -0.90990
H         -0.93460       -2.39360       -1.02430
H         -0.87760       -2.46540        0.72480
H         -4.91770       -3.42700       -0.07960
