15
gdb 2785	4.30035	2.30349	1.60696	2.1314	58.19	-0.2268	-0.026	0.2009	771.7741	0.123559	-345.646864	-345.639549	-345.638604	-345.678501	25.703
C          0.05360        1.31870        0.24430
O         -0.03910        0.02690       -0.33570
C         -1.26490       -0.59370       -0.10660
C         -1.42570       -2.01700       -0.70650
C         -2.07690       -2.51500        0.61940
C         -1.54120       -1.23220        1.28160
O         -1.28050       -0.91540        2.40610
H          1.03940        1.71180       -0.01310
H         -0.71720        1.99220       -0.16170
H         -0.05020        1.27770        1.33450
H         -2.11170        0.05890       -0.38790
H         -2.02220       -2.09480       -1.61520
H         -0.44370       -2.46420       -0.87280
H         -3.17110       -2.53160        0.59080
H         -1.72460       -3.45620        1.04610
