18
gdb 11464	3.40242	1.58379	1.24845	1.7232	64.05	-0.2533	0.0893	0.3426	1007.6795	0.153781	-422.080031	-422.071863	-422.070919	-422.113101	29.814
C          0.32100        1.43270        0.39600
C          0.20660       -0.02010       -0.00470
O          1.22250       -0.36670       -0.91490
C          1.35500       -1.77520       -0.79770
C          1.12180       -2.02790        0.70320
C          2.40760       -2.07900        1.52630
O          2.13410       -2.02190        2.90900
O          0.37750       -0.87400        1.12340
H          1.30840        1.62130        0.82440
H          0.18010        2.07330       -0.47830
H         -0.44550        1.67530        1.13610
H         -0.78210       -0.23270       -0.45320
H          0.60730       -2.29540       -1.41400
H          2.35490       -2.05670       -1.13760
H          0.51940       -2.92440        0.89050
H          2.93530       -3.02140        1.33980
H          3.06280       -1.25260        1.20390
H          1.53370       -1.27470        3.02320
