15
gdb 3540	6.06457	2.99345	2.67345	1.486	60.01	-0.2356	0.1082	0.3438	565.297	0.127975	-308.470796	-308.465936	-308.464992	-308.499088	20.186
C         -0.06430        1.56510        0.00500
C          1.45430        1.28510       -0.00570
C          1.23350        0.11360        1.01290
C          2.21230       -0.98840        0.63070
O          2.14480       -0.92180       -0.80620
C          1.21490        0.12150       -1.01290
C          0.03790        0.02420        0.00240
H         -0.46620        2.02240        0.91270
H         -0.48790        2.03520       -0.88770
H          2.27720        2.00150       -0.00730
H          1.04860        0.32810        2.06620
H          3.23900       -0.79830        0.96740
H          1.90680       -1.98430        0.97500
H          1.05280        0.29680       -2.07610
H         -0.76890       -0.71020        0.01000
