24
gdb 7386	3.41139	0.99825	0.81405	1.3	81.97	-0.2611	0.08	0.3412	1475.5167	0.221216	-351.410348	-351.399454	-351.39851	-351.446746	39.116
C          0.06150        1.54430        0.01800
C         -0.00040        0.00750        0.02430
C          0.79590       -0.52070        1.22960
C         -1.45990       -0.52480       -0.00820
C         -2.24580        0.03230       -1.20810
C         -1.50220       -2.06550        0.01120
C         -2.90060       -2.67290        0.06780
O         -2.74650       -4.06450        0.31800
H          1.09890        1.88530        0.09720
H         -0.35470        1.97960       -0.89360
H         -0.48750        1.96240        0.87090
H          0.49730       -0.35070       -0.88990
H          0.29460       -0.26710        2.17190
H          0.93190       -1.60410        1.20410
H          1.79250       -0.06820        1.25610
H         -1.95210       -0.16720        0.91050
H         -3.27860       -0.32700       -1.21290
H         -2.28990        1.12350       -1.19750
H         -1.78450       -0.27600       -2.15460
H         -0.97970       -2.46480       -0.86850
H         -0.97000       -2.44620        0.88730
H         -3.48320       -2.18820        0.87000
H         -3.44210       -2.50650       -0.87480
H         -3.61760       -4.47080        0.29560
