15
gdb 10417	2.72916	1.97495	1.42994	2.6422	61.48	-0.2732	0.0039	0.2772	897.2008	0.117483	-399.768652	-399.760525	-399.759581	-399.801726	28.079
C          0.00730        1.43460       -0.01190
O         -0.00530        0.01980        0.13380
C         -1.26550       -0.57640        0.02500
C         -1.85990       -0.70950       -1.41250
O         -1.73600       -2.13990       -1.37300
C         -1.15050       -2.11800       -0.06040
C         -2.20650       -0.06980        1.03650
N         -2.94280        0.34000        1.82760
H          1.05060        1.74130        0.07330
H         -0.37770        1.74320       -0.99350
H         -0.58190        1.92460        0.77310
H         -2.89690       -0.38360       -1.54160
H         -1.22060       -0.25250       -2.17700
H         -0.10500       -2.44370       -0.05280
H         -1.73500       -2.68640        0.66910
