16
gdb 18509	5.95715	1.16477	1.09147	4.2508	66.49	-0.271	0.0115	0.2825	1080.6872	0.130429	-383.731186	-383.723884	-383.72294	-383.763788	26.538
O         -0.11030       -0.00170       -0.12790
C         -0.04370        1.19060       -0.10880
O          1.09230        1.85650        0.16260
C          1.06780        3.28680        0.16870
C          1.61600        3.96800        1.45940
C          2.64670        4.69880        0.58910
C          3.51010        3.69300       -0.10810
C          2.13950        3.96950       -0.66620
H         -0.89920        1.86620       -0.31010
H          0.05900        3.63250       -0.07990
H          0.87610        4.61630        1.93310
H          2.02570        3.28390        2.20800
H          2.92380        5.73990        0.68780
H          4.32320        4.09950       -0.70020
H          3.72870        2.73630        0.35800
H          1.99590        4.34270       -1.67260
