19
gdb 15774	4.4834	1.08334	0.94662	4.1618	75.86	-0.2912	0.0375	0.3287	1240.177	0.164999	-327.938462	-327.929699	-327.928755	-327.972083	31.953
C          0.16960        1.43760        0.12130
C         -0.04480       -0.07500       -0.01010
C         -1.55130       -0.44150       -0.00930
C         -2.23640       -0.06070        1.22370
N         -2.75830        0.24370        2.20910
C          0.60980       -0.62900       -1.26160
C          2.07340       -0.98590       -1.25900
C          1.03120       -2.07570       -1.33570
H          1.23750        1.67130        0.14820
H         -0.26710        1.96970       -0.73210
H         -0.29080        1.82860        1.03320
H          0.41070       -0.56890        0.85820
H         -2.05410        0.04880       -0.85220
H         -1.67040       -1.52060       -0.15470
H          0.22970       -0.19660       -2.18550
H          2.66040       -0.76900       -2.14430
H          2.61840       -0.87520       -0.32710
H          0.88480       -2.69310       -0.45470
H          0.90570       -2.60560       -2.27320
