19
gdb 12092	3.64791	1.50883	1.42639	2.5515	72.19	-0.227	0.0666	0.2936	985.6611	0.165134	-365.023825	-365.015646	-365.014702	-365.056097	31.799
C         -0.33140        1.49370       -0.00640
C          0.08250        0.04210        0.03770
N          1.51570       -0.28390       -0.11680
C          0.83580       -0.59820        1.15370
C          1.38800        0.13620        2.34710
O          2.07490        1.30970        2.02180
C          0.63210        0.16130        3.63870
C          1.89890       -0.66790        3.52280
H         -0.35910        1.85310       -1.04090
H         -1.33560        1.61060        0.41560
H          0.35680        2.11490        0.56700
H         -0.60360       -0.62930       -0.47920
H          1.65720       -1.11230       -0.68590
H          0.59750       -1.64130        1.35370
H          2.48800        1.12330        1.16380
H          0.68750        1.08040        4.21090
H         -0.32290       -0.35090        3.69370
H          1.81140       -1.74980        3.50470
H          2.78700       -0.28670        4.01310
