15
gdb 17119	4.71945	1.47619	1.39581	3.418	62.48	-0.2645	0.0269	0.2914	914.4486	0.118982	-399.771385	-399.76434	-399.763396	-399.803227	25.85
N          0.37710        0.93420        0.56650
C          0.11070       -0.15660        0.01490
C         -1.05300       -1.12220        0.05150
C         -0.21270       -1.91690       -0.97800
O          0.83580       -0.90050       -0.90260
C          0.26740       -3.28000       -0.56010
C          1.69450       -3.60500       -0.45230
O          0.89930       -3.35980        0.71310
H          1.28770        1.29020        0.27160
H         -1.19000       -1.62010        1.01210
H         -2.00080       -0.71690       -0.30380
H         -0.62930       -1.95340       -1.98980
H         -0.44070       -4.08400       -0.77100
H          2.02200       -4.63450       -0.58600
H          2.42530       -2.83330       -0.67860
