13
gdb 2910	7.10696	2.03428	1.61336	3.6279	57.52	-0.2452	-0.023	0.2221	722.7492	0.103796	-340.671263	-340.664995	-340.664051	-340.70193	21.516
O         -0.05040       -0.04040        0.00020
C         -0.01050        1.16880        0.00940
N          1.14400        1.90940        0.00300
C          1.25110        3.37560        0.01340
C          2.79950        3.56440       -0.00210
N          3.39540        2.21660       -0.01890
C          2.43890        1.38040       -0.01510
H         -0.91320        1.80910        0.02400
H          0.76440        3.80890       -0.86520
H          0.78380        3.79490        0.90920
H          3.13670        4.12130       -0.88170
H          3.15580        4.10780        0.87840
H          2.54570        0.30310       -0.02460
