24
gdb 14789	11.36488	0.48278	0.47256	1.3122	83.35	-0.2612	0.0815	0.3427	2365.6253	0.221952	-351.414823	-351.403926	-351.402982	-351.451614	37.867
C          0.04600        1.58340        0.01000
C          0.01610        0.05260        0.00210
C         -1.40380       -0.52410        0.01260
C         -1.44250       -2.05560        0.00480
C         -2.86290       -2.63090        0.01530
C         -2.89420       -4.16200        0.00740
C         -4.30680       -4.72980        0.01790
O         -4.21280       -6.14730        0.00940
H          1.07200        1.96460        0.00230
H         -0.46820        1.99390       -0.86630
H         -0.45130        1.98450        0.90040
H          0.55090       -0.32010       -0.88160
H          0.56760       -0.32950        0.87150
H         -1.93980       -0.15090        0.89680
H         -1.95660       -0.14150       -0.85710
H         -0.90700       -2.42860       -0.87930
H         -0.89020       -2.43800        0.87450
H         -3.39780       -2.25720        0.89980
H         -3.41460       -2.24780       -0.85480
H         -2.37290       -4.54590       -0.87830
H         -2.35610       -4.55530        0.87880
H         -4.84470       -4.37220        0.91170
H         -4.86170       -4.36270       -0.86160
H         -5.10430       -6.50740        0.01610
