17
gdb 15971	2.91471	1.90967	1.32976	2.0239	69.63	-0.2442	-0.0301	0.2142	937.5471	0.141841	-363.830578	-363.82285	-363.821906	-363.863514	28.257
O          0.81290       -0.23990       -0.03560
C          0.43590        0.90360       -0.10190
C          1.34070        2.10210       -0.15500
C          0.80430        3.40390       -0.82240
C          1.24570        4.23050        0.42020
C          1.43700        2.91040        1.16870
C          0.90050        2.49440        2.48770
N          2.34810        2.69110        2.27410
H         -0.65180        1.15200       -0.08130
H          2.32870        1.79870       -0.51260
H          1.25260        3.66850       -1.78080
H         -0.28310        3.37550       -0.94100
H          2.19660        4.74930        0.27030
H          0.52090        4.93610        0.83280
H          0.43070        3.22830        3.13750
H          0.52410        1.48040        2.59890
H          2.81890        1.79330        2.18250
