15
gdb 2912	4.80683	2.26006	1.9381	3.1961	56.99	-0.2399	-0.0212	0.2188	700.8248	0.125634	-345.665412	-345.658726	-345.657782	-345.696727	23.526
O          0.35950       -0.10920        0.18000
C          0.16970        1.06820        0.03180
C          1.26150        2.11070       -0.16910
C          1.40220        2.98300        1.12380
C          2.86190        2.72270        1.55900
C          3.21090        1.42710        0.81710
O          2.51960        1.53000       -0.42370
H         -0.85910        1.50350        0.05940
H          0.98390        2.71990       -1.03920
H          1.20840        4.03770        0.92180
H          0.69350        2.66380        1.89450
H          3.50990        3.53420        1.21660
H          2.97010        2.63530        2.64250
H          4.27510        1.31580        0.59590
H          2.87160        0.54220        1.37340
