17
gdb 7567	3.03423	1.86535	1.60077	2.5131	63.84	-0.232	0.0328	0.2648	882.0302	0.141542	-401.024646	-401.016243	-401.015299	-401.057756	30.709
C         -0.27650        1.69200       -0.28670
C         -0.02830        0.20850       -0.07670
C          0.84720       -0.52320       -1.12830
C          1.78350       -0.82230        0.05590
O          0.96450       -0.04420        0.96200
C         -1.35520       -0.51370        0.20210
N         -1.39050       -1.16010        1.39270
O         -2.26590       -0.48940       -0.60560
H          0.65050        2.19900       -0.56800
H         -1.02250        1.82650       -1.07370
H         -0.65580        2.14900        0.63310
H          0.38120       -1.38040       -1.61390
H          1.26440        0.13980       -1.88780
H          1.83460       -1.87490        0.35890
H          2.80000       -0.42070       -0.01080
H         -0.59780       -1.09140        2.00970
H         -2.23660       -1.62350        1.67800
