16
gdb 19191	3.52741	1.95662	1.75101	2.7374	63.41	-0.2337	-0.0176	0.2162	799.5446	0.131977	-383.737939	-383.731152	-383.730208	-383.768632	26.573
O          0.16320        1.44210       -0.13770
C          0.03700        0.05530       -0.02270
C          0.19270       -0.65340        1.37410
C         -0.90670        0.04900        2.20440
C         -2.07790        0.06830        1.15090
C         -1.38100       -0.62750       -0.04130
C         -0.64470       -1.75640        0.70210
O         -0.64150       -2.95090        0.67680
H         -0.40850        1.87170        0.50610
H          0.70390       -0.37470       -0.77200
H          1.15760       -0.84310        1.83810
H         -1.16340       -0.51020        3.10660
H         -0.60070        1.05150        2.51990
H         -2.95800       -0.48070        1.49240
H         -2.40560        1.08120        0.89640
H         -1.94760       -0.79210       -0.95480
