16
gdb 12901	3.49217	1.79522	1.53547	1.8479	71.52	-0.2291	0.0489	0.278	885.9674	0.128715	-346.530213	-346.522505	-346.521561	-346.561862	29.279
C         -0.06650        1.50950        0.03640
C          0.03420        0.02120        0.09720
O         -1.17120       -0.73180       -0.03380
C         -0.68800       -1.70410        0.93550
C          0.64560       -0.97980        1.04750
C          1.22910       -0.80230       -0.35910
C          1.15840       -1.81240       -1.37290
C          1.10040       -2.66430       -2.22040
H          0.90930        1.97030        0.21280
H         -0.41900        1.82500       -0.95170
H         -0.77250        1.88160        0.78520
H         -1.28760       -1.66040        1.85070
H         -0.67900       -2.72150        0.53150
H          1.24640       -0.85630        1.93880
H          2.15500       -0.23130       -0.34090
H          1.04430       -3.40810       -2.97580
