18
gdb 12841	2.91228	2.39924	1.76361	1.3064	71.92	-0.236	0.0255	0.2614	817.74	0.154838	-347.804444	-347.797336	-347.796392	-347.835627	28.317
O         -0.07800        1.32960       -0.32030
C          0.01270       -0.03200        0.04360
C          0.39740       -0.99120       -1.12950
C         -1.06850       -1.50870       -1.19310
C         -1.38910       -0.71810        0.11320
C         -1.32330       -1.50380        1.39140
C         -0.19760       -1.28480        2.07400
C          0.71270       -0.28490        1.39950
H          0.81420        1.65230       -0.48850
H          0.75080       -0.47260       -2.02420
H          1.12840       -1.75460       -0.85060
H         -1.61800       -1.13680       -2.06100
H         -1.19770       -2.59200       -1.13560
H         -2.25330       -0.04970        0.05490
H         -2.11590       -2.17700        1.70240
H          0.05180       -1.74620        3.02390
H          1.73760       -0.66080        1.27910
H          0.77960        0.65000        1.97300
