18
gdb 17937	3.27396	2.31605	2.08976	0.5465	75.62	-0.2162	0.0214	0.2377	776.6948	0.15563	-310.646914	-310.640405	-310.639461	-310.67701	26.933
C         -0.03030        1.53450       -0.03820
C         -0.00950        0.03800        0.01800
C          0.45590       -1.01360       -0.96440
C          1.30010       -1.69520        0.10040
C          0.50320       -0.87610        1.19440
C         -0.69120       -1.70990        1.59430
C         -1.53760       -1.77720        0.55980
C         -1.03950       -0.90870       -0.54240
H          0.96560        1.95850        0.13700
H         -0.36970        1.88140       -1.02020
H         -0.70760        1.95300        0.71580
H          0.71530       -0.90290       -2.01160
H          1.27820       -2.78690        0.18590
H          2.33590       -1.35070        0.03930
H          1.09450       -0.43300        1.99550
H         -0.74530       -2.28360        2.51170
H         -2.42960       -2.38770        0.49120
H         -1.70150       -0.55730       -1.32680
