12
gdb 4018	2.70211	2.01128	1.15531	8.6565	66.06	-0.2025	-0.062	0.1405	935.7705	0.083084	-410.814514	-410.806401	-410.805457	-410.846854	28.975
N         -0.04410        1.30420       -0.12300
C         -0.01730       -0.04010       -0.01060
N          1.17660       -0.65760        0.07720
H          1.19120       -1.66620        0.05780
H          2.01760       -0.17780       -0.19640
C         -1.22210       -0.76740        0.00600
N         -2.37320       -0.00470        0.04650
O         -3.44910       -0.59660        0.04970
C         -1.19350       -2.18530       -0.00870
N         -1.09600       -3.34180       -0.01810
H          0.72970        1.84720        0.22380
H         -0.97360        1.70190       -0.05520
