18
gdb 12674	2.64559	2.22107	1.4583	4.2563	66.83	-0.2612	0.0159	0.2771	909.9022	0.154329	-384.998365	-384.990439	-384.989495	-385.030485	29.581
C          0.13190        1.63390       -0.14920
C          0.01610        0.11260       -0.00080
C          0.75140       -0.62820       -1.13410
O          2.10720       -0.79480       -0.68150
C          2.16490       -0.71080        0.67590
O          3.18920       -0.82840        1.28420
C          0.75930       -0.46250        1.22560
C          0.76700        0.32750        2.53090
H          1.17870        1.95460       -0.19080
H         -0.35400        1.96410       -1.07280
H         -0.34650        2.15610        0.68360
H         -1.04100       -0.16900        0.00980
H          0.32110       -1.61860       -1.32610
H          0.78370       -0.07040       -2.07300
H          0.35030       -1.46450        1.42460
H          1.16640        1.33500        2.38970
H         -0.24100        0.41190        2.94770
H          1.40490       -0.17900        3.25930
