14
gdb 6359	5.70446	1.13827	0.96107	5.1276	56.63	-0.2606	0.0127	0.2734	1152.93	0.106529	-453.070527	-453.061776	-453.060832	-453.104809	29.574
C          0.15320        1.32080        0.00750
O         -0.05970       -0.09210        0.09460
C         -1.35810       -0.47190       -0.02570
O         -2.28240        0.27350       -0.18690
N         -1.39110       -1.85760        0.05030
C         -2.54850       -2.65230        0.12950
N         -2.23460       -4.00260        0.08620
O         -3.66600       -2.22760        0.27130
H          1.22840        1.46350        0.11660
H         -0.18740        1.70470       -0.95740
H         -0.38400        1.84250        0.80320
H         -0.49510       -2.29880        0.18710
H         -1.44750       -4.29760       -0.47170
H         -3.05180       -4.58720       -0.00490
