18
gdb 17893	2.72411	2.38438	2.14158	1.4215	66.47	-0.2335	0.0828	0.3163	780.5729	0.155593	-384.919946	-384.913078	-384.912134	-384.950598	27.064
C         -0.11770        1.64060        0.00210
C          0.06230        0.12950        0.01520
C          1.09100       -0.61510       -0.87410
C          2.44200        0.08590       -0.90310
O          2.72490        0.70470        0.35010
C          2.14440        0.07120        1.48810
C          0.84290       -0.62740        1.12030
O          1.18610       -1.65580        0.14400
H          0.83060        2.16680        0.12330
H         -0.57390        1.96360       -0.94020
H         -0.79130        1.95280        0.80780
H         -0.90250       -0.37070       -0.10800
H          0.79340       -1.00320       -1.85270
H          3.21350       -0.65710       -1.15560
H          2.46840        0.88450       -1.65390
H          2.83170       -0.67610        1.91290
H          1.98480        0.86050        2.23200
H          0.31500       -1.02690        1.99130
