15
gdb 4028	2.35024	2.04033	1.13753	6.1903	67.55	-0.1725	-0.0351	0.1374	992.4534	0.117945	-433.071644	-433.062903	-433.061959	-433.104759	31.735
N         -0.32510        1.20250       -0.47040
C         -0.17820       -0.07990       -0.08270
N          1.08180       -0.59030       -0.00650
H          1.06980       -1.58750        0.18340
H          1.75540       -0.27750       -0.68960
C         -1.29390       -0.85200        0.27230
C         -2.66140       -0.25490        0.43200
O         -3.06040        0.57490       -0.68280
N         -1.02150       -2.17910        0.45610
O         -1.95570       -2.92290        0.79710
H          0.46730        1.80320       -0.61260
H         -1.26280        1.51800       -0.68580
H         -3.36130       -1.08140        0.59150
H         -2.71880        0.41500        1.29710
H         -3.11740        0.00040       -1.45440
