24
gdb 9767	3.47009	1.39994	1.33238	0.0402	83.9	-0.2951	0.0718	0.3669	1108.7684	0.224451	-314.298441	-314.289284	-314.28834	-314.331855	35.109
C          0.08760        1.62780        0.13820
C          0.01710        0.09630        0.17310
C         -1.37660       -0.52120       -0.05500
C         -2.35590       -0.09000        1.05370
C         -1.95700       -0.19780       -1.45420
C         -2.98600       -1.31330       -1.75020
C         -2.55200       -2.53060       -0.88140
C         -1.29390       -2.06690       -0.11280
H          1.11960        1.96810        0.27100
H         -0.26910        2.02460       -0.81790
H         -0.51060        2.08500        0.93210
H          0.69660       -0.30450       -0.59090
H          0.40560       -0.25810        1.13770
H         -2.53360        0.98970        1.03970
H         -3.32880       -0.57950        0.94580
H         -1.96430       -0.35260        2.04310
H         -2.39610        0.80270       -1.51350
H         -1.14470       -0.23400       -2.19110
H         -3.99580       -0.98990       -1.48000
H         -3.01690       -1.55650       -2.81590
H         -3.35080       -2.81210       -0.18860
H         -2.34580       -3.41700       -1.48770
H         -0.39160       -2.35310       -0.66710
H         -1.21250       -2.51900        0.88120
