17
gdb 10690	2.37712	1.92395	1.51289	3.2556	68.59	-0.2798	0.0247	0.3046	935.7366	0.140938	-363.868076	-363.859449	-363.858505	-363.901079	31.608
C          0.10210        1.44440       -0.31830
C          0.01740       -0.02880        0.08060
O          0.61800       -0.27340        1.34040
C         -1.41850       -0.56790        0.04000
C         -1.98300       -1.08400       -1.27420
C         -1.63130       -2.05420       -0.18690
C         -2.31580        0.09800        0.95000
N         -2.99360        0.65600        1.70460
H          1.14130        1.77930       -0.27400
H         -0.27590        1.60240       -1.33320
H         -0.49220        2.06540        0.36140
H          0.59850       -0.63080       -0.62830
H          0.18250        0.28840        1.99280
H         -3.02940       -0.89640       -1.48190
H         -1.33020       -1.01120       -2.13750
H         -0.73220       -2.65150       -0.28780
H         -2.43870       -2.53490        0.35180
