16
gdb 17694	4.86112	1.60817	1.56034	2.4904	64.9	-0.24	0.0802	0.3202	862.6727	0.130246	-383.641314	-383.634605	-383.63366	-383.672611	25.688
C          0.44240        1.47690        0.28960
O          1.17530        0.34950       -0.19590
C         -0.20220        0.16740        0.13010
C         -0.49480       -0.69150        1.30830
C         -1.85150       -0.95200        2.01960
C         -0.70290       -1.55240        2.86360
C         -0.08090       -2.16370        1.58900
O          0.08320       -0.31700        2.62470
H          0.70900        1.80600        1.29090
H          0.25070        2.26200       -0.44030
H         -0.85570       -0.00230       -0.72700
H         -2.32690       -0.06730        2.44470
H         -2.55850       -1.63740        1.54530
H         -0.72140       -1.93900        3.88160
H         -0.62780       -2.95860        1.07580
H          0.99510       -2.33130        1.62820
