14
gdb 13652	5.81214	0.9349	0.85324	1.4683	82.45	-0.2302	-0.0147	0.2155	1296.3187	0.104872	-345.330384	-345.322117	-345.321172	-345.363332	30.07
O          0.08420        1.39490        0.27290
C          0.02520        0.01930        0.10470
C         -0.41960       -0.77120        1.28520
C         -1.34250       -0.67380        0.06690
C         -2.52780        0.11610        0.10940
C         -3.53630        0.78910        0.10620
C         -4.66670        1.54400        0.11370
C         -5.67100        2.21570        0.11700
H         -0.34200        1.81570       -0.48230
H          0.78820       -0.40840       -0.54560
H          0.03880       -1.73310        1.48240
H         -0.71260       -0.19920        2.15690
H         -1.40250       -1.56270       -0.55540
H         -6.55420        2.80440        0.12440
