19
gdb 6918	3.18163	1.51656	1.34613	3.3598	72.55	-0.2434	0.0273	0.2706	1017.1065	0.164133	-365.083544	-365.074498	-365.073554	-365.117161	32.975
C         -0.15780        1.42460        0.34830
C          0.05030       -0.04950        0.06740
C         -1.18850       -0.78040       -0.41200
C          1.39390       -0.49690       -0.46800
C          0.99690       -0.83980        0.94660
N          1.69830       -0.21130        2.02820
C          1.10480        0.06080        3.22430
O         -0.07390       -0.08200        3.46530
H          0.76390        1.90610        0.68390
H         -0.50050        1.94300       -0.55430
H         -0.91060        1.56180        1.13090
H         -1.55620       -0.35380       -1.35240
H         -0.98820       -1.84250       -0.58510
H         -1.99120       -0.70650        0.32980
H          1.43730       -1.30350       -1.19230
H          2.15830        0.26320       -0.59890
H          0.70680       -1.86940        1.14570
H          2.70420       -0.15370        1.98070
H          1.83460        0.44690        3.96520
