16
gdb 2189	3.83395	2.55504	1.75926	2.7873	61.81	-0.2579	0.0309	0.2888	750.7001	0.136421	-325.788368	-325.781013	-325.780069	-325.819646	26.797
C          0.17370        1.48550       -0.23990
C         -0.05630        0.03310        0.11440
O          0.61450       -0.87080       -0.83510
C          1.36140       -1.44580        0.16940
N          2.24840       -2.33200        0.12380
C          0.73880       -0.62430        1.28150
C          1.67870        0.20080        2.15170
H          1.23950        1.72030       -0.29810
H         -0.27850        1.71100       -1.21020
H         -0.28710        2.13760        0.50950
H         -1.12590       -0.19890        0.13000
H          2.40550       -2.65120       -0.83390
H          0.09160       -1.24060        1.91280
H          2.35050        0.82240        1.55430
H          1.11910        0.85160        2.83100
H          2.29890       -0.46820        2.75470
