15
gdb 8047	3.59111	1.87932	1.53903	4.8821	66.1	-0.2604	0.0172	0.2776	848.3085	0.118193	-362.614062	-362.606917	-362.605973	-362.645275	26.975
C         -0.00320        1.46850        0.07410
C         -0.01270       -0.01870       -0.06240
C          0.62350       -0.95270       -1.12830
C          0.09410       -1.81310        0.03790
O          0.65410       -0.83580        0.98690
C         -1.23510       -1.00450        0.01280
C         -2.03850       -0.97630        1.22100
N         -2.71290       -0.94300        2.15900
H          1.02630        1.83670        0.10270
H         -0.51590        1.93080       -0.77480
H         -0.50960        1.76890        0.99580
H          0.14140       -1.03540       -2.10560
H          1.70990       -0.89270       -1.18710
H          0.23170       -2.87050        0.25610
H         -1.85650       -1.09210       -0.88200
