12
gdb 2122	3.74569	3.29525	1.79337	5.8034	51.44	-0.2353	-0.0628	0.1725	653.6291	0.091335	-360.566272	-360.560021	-360.559077	-360.597466	21.816
O         -0.00980        0.00100        0.12040
C         -0.02950        1.19750        0.05120
C         -1.25270        2.10630        0.01000
C         -0.69670        3.54620        0.05630
N          0.74760        3.37450       -0.03730
C          1.22610        2.09710       -0.01620
O          2.37890        1.73660       -0.04500
H         -1.80570        1.90960       -0.91350
H         -1.92370        1.87840        0.84120
H         -1.06980        4.15780       -0.77180
H         -0.97040        4.05320        0.98920
H          1.38400        4.15630       -0.05500
