16
gdb 299	5.09266	2.97394	2.52892	1.2792	56.93	-0.2497	0.083	0.3327	599.392	0.141365	-271.621961	-271.61481	-271.613865	-271.652008	26.639
C         -0.08610        1.55220       -0.00430
C         -0.01350        0.03800        0.01170
C         -1.24150       -0.66230       -0.53780
C          1.33940       -0.61240       -0.23470
C          0.71830       -0.63190        1.14320
O          1.24390        0.18180        2.15320
H          0.78390        1.99600        0.48260
H         -0.14200        1.92700       -1.03270
H         -0.97840        1.90370        0.52680
H         -1.40330       -0.40150       -1.59040
H         -1.14650       -1.75130       -0.47820
H         -2.14090       -0.37340        0.01870
H          1.38590       -1.53670       -0.80190
H          2.18770        0.05010       -0.37470
H          0.31430       -1.58150        1.49720
H          2.10550       -0.17100        2.39790
