18
gdb 13671	5.22646	0.8963	0.82178	2.0559	74.38	-0.2534	0.06	0.3133	1380.394	0.151762	-347.751218	-347.742279	-347.741335	-347.785189	32.733
O         -0.06340        1.45570        0.15220
C         -0.01840        0.06080        0.05880
C         -0.62480       -0.77950        1.15550
C         -1.31930       -0.64580       -0.18980
C         -2.61450        0.12800       -0.30560
C         -3.83230       -0.70920        0.14180
C         -5.09300        0.01320        0.02560
C         -6.11860        0.63160       -0.07940
H          0.55300        1.72680        0.84000
H          0.86510       -0.33010       -0.44620
H         -0.15510       -1.71930        1.42500
H         -1.06690       -0.23640        1.98540
H         -1.25410       -1.51510       -0.84030
H         -2.55510        1.03990        0.29360
H         -2.76510        0.45000       -1.34240
H         -3.88390       -1.62990       -0.45470
H         -3.68700       -1.03180        1.18080
H         -7.02990        1.16860       -0.16870
