17
gdb 6669	8.11544	0.73376	0.6814	1.8023	68.15	-0.2567	-0.0217	0.235	1594.0486	0.139022	-401.017295	-401.00758	-401.006636	-401.054204	31.597
C         -0.00380        1.48260       -0.07910
C         -0.01540       -0.02820        0.05020
O         -0.05480       -0.58370        1.12540
C          0.02550       -0.81860       -1.24930
C          0.01000       -2.32000       -1.01660
O          0.05100       -2.94570       -2.30130
C          0.04400       -4.29200       -2.30390
N          0.07780       -4.92160       -3.39740
H          0.89640        1.81290       -0.60940
H         -0.86150        1.82130       -0.67100
H         -0.03630        1.93910        0.91060
H         -0.82440       -0.52440       -1.87810
H          0.91970       -0.53310       -1.81780
H          0.87330       -2.62340       -0.41310
H         -0.89560       -2.61450       -0.47380
H          0.00740       -4.73350       -1.29800
H          0.06660       -5.92380       -3.21980
