15
gdb 11087	7.09442	1.05542	1.03526	3.6354	72.44	-0.2725	0.0166	0.2891	1114.5839	0.118681	-325.497776	-325.490088	-325.489144	-325.530112	28.204
C         -0.62680       -0.89780       -0.75390
C         -0.23930        0.14870       -0.30570
C          0.24380        1.39180        0.25480
C          0.09360        1.62810        1.79170
C          1.52680        2.25530        1.81050
C          1.78470        1.59060        0.41790
C          1.52950        3.71010        1.77410
N          1.52360        4.86600        1.73550
H         -0.97530       -1.81640       -1.15700
H         -0.18040        2.24110       -0.29070
H         -0.73240        2.25800        2.12180
H          0.07930        0.68550        2.34110
H          2.17800        1.92230        2.62120
H          2.30000        0.63620        0.53710
H          2.29340        2.19090       -0.33640
