16
gdb 7116	7.15861	0.95912	0.85482	3.9257	64.54	-0.2598	-0.0127	0.247	1307.4714	0.130023	-417.101468	-417.092779	-417.091835	-417.135385	29.953
C          0.64930        1.33330        0.86910
C          0.21690        0.12600        0.05950
O         -1.15070       -0.15730        0.40440
C         -1.70950       -1.20990       -0.22460
N         -1.11120       -1.93090       -1.06970
N         -3.03410       -1.32010        0.24430
C         -3.95190       -2.26160       -0.14170
O         -3.76410       -3.14490       -0.94710
H          1.68840        1.58130        0.63400
H          0.02760        2.20330        0.63880
H          0.57800        1.13250        1.94190
H          0.27940        0.30650       -1.01810
H          0.82610       -0.75710        0.27620
H         -1.73020       -2.66360       -1.41040
H         -3.31310       -0.63190        0.92770
H         -4.91620       -2.12000        0.38170
