17
gdb 5744	4.67824	1.82861	1.41306	2.2364	75.73	-0.1943	0.0549	0.2493	895.5697	0.144192	-326.735993	-326.729042	-326.728098	-326.767288	26.81
C         -0.38140        1.60700       -0.24220
C          0.02730        0.16190       -0.01940
C          0.78600       -0.58250       -1.19170
C          1.92630       -0.71850       -0.19830
C          3.12290       -1.17090        0.30940
C          3.13920       -0.71910        1.66920
C          1.96530       -0.03340        1.94660
N          1.25990       -0.04050        0.77490
H          0.45300        2.18940       -0.64400
H         -1.21520        1.65680       -0.95010
H         -0.70670        2.07260        0.69380
H         -0.81020       -0.42240        0.37780
H          0.31290       -1.51260       -1.51860
H          0.97580        0.04510       -2.06790
H          3.89240       -1.73890       -0.18900
H          3.94470       -0.87170        2.37280
H          1.62220        0.45380        2.84450
