15
gdb 13446	3.41736	1.78659	1.50366	2.9624	58.36	-0.2368	-0.0016	0.2352	861.7983	0.118404	-436.898992	-436.891432	-436.890488	-436.931202	27.958
O         -0.87550        1.46150        0.15880
C         -0.35950        0.19490       -0.06950
C         -0.31020       -0.68250        1.16150
O         -0.84290       -0.13350        2.31650
C         -1.25680       -1.02820        0.02510
O         -2.64430       -0.98370        0.31650
C         -3.48880       -0.20920       -0.36280
N         -3.16260        0.74960       -1.12850
H         -1.66450        1.52850       -0.42210
H          0.44250        0.13750       -0.80500
H          0.53770       -1.33570        1.34440
H         -1.06560        0.78240        2.08490
H         -1.02050       -1.87180       -0.61760
H         -4.51190       -0.52140       -0.13640
H         -3.98630        1.19560       -1.52250
