13
gdb 101	7.36997	4.78662	3.53123	1.3092	45.84	-0.2518	0.0822	0.334	418.298	0.113827	-232.32907	-232.323327	-232.322383	-232.357426	20.702
C         -0.07990        1.55910       -0.03880
C          0.00040        0.05110        0.04350
C          1.31750       -0.66230       -0.20270
C          0.71620       -0.61850        1.18130
O          1.28130        0.21470        2.15340
H          0.80210        2.01980        0.41150
H         -0.15240        1.89230       -1.07970
H         -0.95840        1.93560        0.49640
H         -0.88620       -0.46940       -0.30920
H          1.32380       -1.60090       -0.74670
H          2.18620       -0.03320       -0.37070
H          0.28510       -1.54030        1.57290
H          2.12930       -0.16230        2.40900
