14
gdb 2588	3.10899	2.76471	1.74141	3.7775	57.92	-0.2986	0.0035	0.3021	742.9978	0.112284	-324.570035	-324.562741	-324.561797	-324.601461	25.729
C          0.04880        1.46480        0.30410
C         -0.03320        0.03010       -0.22750
C         -1.42940       -0.55460       -0.12020
C         -1.65960       -1.97060        0.23170
O         -1.85850       -0.93700        1.19220
C         -2.45160        0.11650       -0.91150
N         -3.23500        0.66300       -1.56210
H          1.07170        1.84310        0.22820
H         -0.60230        2.13560       -0.26470
H         -0.25420        1.50520        1.35420
H          0.28110       -0.00850       -1.27710
H          0.63830       -0.62440        0.33750
H         -2.56150       -2.47210       -0.11240
H         -0.79190       -2.60730        0.39570
