17
gdb 18772	4.03705	2.37724	2.08708	1.9172	70.38	-0.2158	0.0844	0.3003	732.7244	0.143876	-326.63963	-326.633555	-326.632611	-326.669381	25.042
C         -0.00760        1.46290        0.02340
C         -0.05010       -0.03260       -0.03970
C         -0.09100       -0.96150        1.19600
C          1.01710       -1.06440        0.18740
N          0.20120       -2.08640       -0.59220
C         -0.80430       -2.17250        0.58010
C         -1.92780       -1.66740       -0.34190
C         -0.75550       -0.96170       -1.04540
H          0.63760        1.80370        0.84040
H          0.38340        1.89180       -0.90630
H         -1.00480        1.88620        0.19310
H         -0.08130       -0.58340        2.21040
H          2.09760       -1.02840        0.25430
H         -0.86900       -3.10630        1.13920
H         -2.33390       -2.47560       -0.95640
H         -2.73350       -1.06420        0.08430
H         -0.77210       -0.69070       -2.10220
