12
gdb 20615	3.54919	1.96788	1.27598	0.4	63.89	-0.277	-0.0584	0.2186	869.0668	0.085242	-373.722401	-373.715364	-373.71442	-373.754503	24.306
C          0.01500        1.51650        0.09420
C          0.06300        0.03160       -0.01630
C         -0.04620       -0.77490       -1.13830
N          0.06940       -2.04290       -0.64750
N          0.23760       -2.03100        0.67550
N          0.23440       -0.78510        1.06010
C         -0.23270       -0.47500       -2.50340
N         -0.38610       -0.22330       -3.62370
H          0.94350        1.89960        0.52800
H         -0.12850        1.97810       -0.88490
H         -0.80440        1.82660        0.74960
H          0.04230       -2.91840       -1.14810
