20
gdb 5802	3.349	1.38152	1.25138	3.3992	71.92	-0.2426	0.0578	0.3004	1086.0078	0.175617	-382.376735	-382.367034	-382.36609	-382.410296	36.65
C         -0.05850        1.56470        0.08780
C          0.01240        0.02870        0.04300
C          0.70220       -0.51620        1.30820
C         -1.40470       -0.55110       -0.07370
N          0.73120       -0.39920       -1.17630
C          2.05280       -0.11560       -1.42660
N          2.56520       -0.79150       -2.53580
O          2.74300        0.63080       -0.75330
H          0.94440        1.99030        0.12820
H         -0.56760        1.95090       -0.80090
H         -0.61740        1.88750        0.97200
H          0.15410       -0.20850        2.20470
H          0.73480       -1.61090        1.28950
H          1.72380       -0.13860        1.37360
H         -1.90420       -0.18880       -0.97810
H         -1.38490       -1.64730       -0.10370
H         -2.00620       -0.25520        0.78990
H          0.37080       -1.23360       -1.61320
H          1.93140       -0.96530       -3.30240
H          3.45020       -0.40490       -2.82940
