14
gdb 4925	6.91221	1.29348	1.1009	2.1537	60.05	-0.1902	0.0384	0.2286	1024.1983	0.107847	-415.884014	-415.876507	-415.875563	-415.915725	27.423
C          0.02320        1.38600        0.12560
N         -0.02930       -0.02680       -0.19130
C         -1.23680       -0.67690       -0.07580
C         -2.50200       -0.18500        3.64640
O         -3.36030       -1.29590        0.03830
C         -2.52500       -2.34200       -0.00020
O         -3.06460       -3.55910        0.03630
N         -1.26520       -2.07240       -0.06690
H          1.05030        1.74170        0.02190
H         -0.59610        1.94640       -0.58430
H         -0.33300        1.61950        1.14190
H          0.73890       -0.58330        0.15370
H         -2.96820        0.78090        0.01880
H         -4.02330       -3.46250        0.08800
