14
gdb 20427	6.26632	1.54406	1.31493	1.4844	63.72	-0.2237	0.0011	0.2248	891.6847	0.110218	-374.870201	-374.86371	-374.862766	-374.90152	23.748
C         -0.07470        1.35130       -0.23920
C          1.31160        0.88620        0.04300
N          0.19670       -0.05100        0.09800
C         -0.20430       -0.53820        1.34190
N          0.64070       -0.75780        2.35200
N         -0.14710       -1.28630        3.28850
N         -1.42640       -1.42620        2.98080
C         -1.49340       -0.95630        1.73640
H         -0.56050        1.96380        0.51640
H         -0.40260        1.52510       -1.25940
H          2.00890        0.72320       -0.77280
H          1.76090        1.17980        0.98700
H          0.21880       -1.57940        4.17890
H         -2.42190       -0.93700        1.18980
