14
gdb 20406	4.89314	2.10136	1.50193	0.5636	63.03	-0.2037	0.0204	0.2242	786.6256	0.110904	-378.727743	-378.721643	-378.720699	-378.75803	23.297
C          0.04140        1.39810       -0.10920
C          1.53910        1.81960        0.06580
C          2.08470        0.56200        0.67230
N          3.21520        0.13070        1.21130
N          2.94790       -1.16840        1.47500
C          1.67880       -1.57130        1.12360
C          1.11280       -0.43920        0.59340
O         -0.05930       -0.05180        0.02870
H         -0.58230        1.84890        0.67080
H         -0.37080        1.66040       -1.08540
H          2.01050        2.05170       -0.89590
H          1.63000        2.70480        0.70070
H          3.65530       -1.72550        1.92090
H          1.33430       -2.57880        1.28130
