16
gdb 15057	2.83753	1.7267	1.21224	2.716	65.4	-0.2581	0.0057	0.2639	999.1081	0.130195	-379.88709	-379.878683	-379.877739	-379.920451	29.205
C         -0.36010        1.49780        0.04990
O         -0.53730        0.20060        0.59800
C         -1.60980       -0.52410        0.04790
C         -1.35830       -0.87710       -1.36960
N         -1.16040       -1.14280       -2.47660
C         -1.83020       -1.78780        0.87330
C         -0.67720       -2.50300        1.46380
N         -1.61400       -1.74320        2.31820
H          0.47080        1.95360        0.59080
H         -0.11550        1.45180       -1.01880
H         -1.26160        2.11210        0.18480
H         -2.52980        0.08480        0.07150
H         -2.70600       -2.34780        0.55540
H         -0.71760       -3.58140        1.58120
H          0.31050       -2.08710        1.29450
H         -1.18060       -0.85180        2.55160
