16
gdb 15078	3.11559	1.55515	1.15969	3.3343	60.9	-0.2513	-0.024	0.2272	1018.9517	0.127933	-420.846948	-420.838298	-420.837354	-420.880851	29.797
O          0.08040        1.36480       -0.06440
C          0.05540       -0.05180       -0.00070
C         -1.41180       -0.46240        0.09160
C         -2.17020        0.01710       -1.14660
O         -3.35880        0.20200       -1.17260
C         -1.55110       -1.96820        0.24870
C         -2.77320       -2.70380       -0.08900
O         -1.63270       -2.73510       -0.95830
H          0.98110        1.65000       -0.24350
H          0.50530       -0.50610       -0.89800
H          0.60740       -0.43000        0.87330
H         -1.86410        0.02580        0.96340
H         -1.54140        0.17210       -2.04890
H         -0.89420       -2.40300        1.00490
H         -2.98630       -3.63970        0.42470
H         -3.63460       -2.16120       -0.47000
