20
gdb 291	4.19798	2.86549	1.86359	0.	66.87	-0.3016	0.0822	0.3838	747.1084	0.187721	-236.916033	-236.907667	-236.906723	-236.94792	30.606
C         -0.04730        1.55110        0.04930
C         -0.02600        0.01520       -0.00940
C         -1.46720       -0.51590        0.05180
C          0.74630       -0.51680       -1.24540
C          2.18740        0.01440       -1.30660
C          0.76760       -2.05270       -1.30400
H          0.95350        1.97970        0.14340
H         -0.50820        1.97070       -0.85360
H         -0.63350        1.89620        0.90730
H          0.50410       -0.34780        0.88480
H         -2.02520       -0.23770       -0.85090
H         -1.50810       -1.60360        0.14780
H         -1.99870       -0.09100        0.90970
H          0.21610       -0.15380       -2.13950
H          2.74550       -0.26380       -0.40390
H          2.71890       -0.41040       -2.16450
H          2.22830        1.10210       -1.40260
H          1.22860       -2.47220       -0.40110
H         -0.23310       -2.48130       -1.39810
H          1.35390       -2.39780       -2.16200
