15
gdb 11926	3.19855	1.89291	1.53241	4.8195	67.1	-0.2557	-0.0068	0.2489	865.7429	0.11823	-362.634806	-362.627388	-362.626444	-362.666375	27.493
C         -0.03600        1.56510        0.01730
C          0.01110        0.06740        0.00270
C         -0.88590       -0.82340        0.82890
C          0.60840       -0.93810        0.98970
O          1.15890       -1.75020       -0.04610
C          0.70720       -0.79660       -1.05010
C          1.32520       -0.76530        2.21100
N          1.89370       -0.60270        3.20590
H          0.93070        1.99630       -0.26160
H         -0.78910        1.93730       -0.68700
H         -0.29870        1.94010        1.01080
H         -1.40710       -0.31900        1.63630
H         -1.40710       -1.66940        0.38950
H          0.08140       -1.26710       -1.81590
H          1.56620       -0.30200       -1.51650
