12
gdb 5340	6.05524	1.60911	1.27128	0.0375	73.11	-0.2552	-0.0642	0.191	877.5911	0.085425	-340.395789	-340.389547	-340.388602	-340.426168	23.373
C          0.00390       -1.19290       -0.00360
C          0.02670        0.01010        0.00250
C          0.00530        1.43700        0.01030
C         -1.21920        2.12680        0.03040
N         -1.28710        3.45460        0.03830
C         -0.12160        4.10540        0.02600
C          1.09680        3.42850        0.00600
N          1.17420        2.10020       -0.00200
H         -0.00070       -2.25510       -0.00910
H         -2.15540        1.57600        0.04020
H         -0.15900        5.19130        0.03230
H          2.03680        3.97440       -0.00380
