16
gdb 11780	4.46312	1.76016	1.57848	2.7697	64.7	-0.2518	-0.0351	0.2167	834.2841	0.130853	-383.723419	-383.71657	-383.715626	-383.756993	25.686
O         -0.36710        0.35940       -0.59620
C          0.08800        1.09770        0.24110
C          1.33030        1.90640        0.02610
C          2.71270        1.28100       -0.32620
C          3.01750        2.77440       -0.66100
C          1.55150        2.84950       -1.19100
C          2.83500        3.40420        0.72720
O          1.61990        2.74100        1.15600
H         -0.38430        1.22730        1.23860
H          3.25610        0.80630        0.49390
H          2.67140        0.63840       -1.20530
H          3.87830        3.08550       -1.25110
H          1.40790        2.34410       -2.14560
H          1.03320        3.81070       -1.16340
H          3.65010        3.17640        1.42310
H          2.67850        4.48840        0.69980
