19
gdb 4813	5.33936	1.20924	1.07013	1.9326	79.79	-0.1968	0.0477	0.2445	1172.7101	0.16611	-327.968906	-327.960311	-327.959367	-328.002699	31.031
C          0.09630        1.55360        0.18530
C         -0.09770        0.04920       -0.07060
C          0.64630       -0.45200       -1.27560
C          0.09440       -0.86270       -2.47000
N          1.10370       -1.24770       -3.32010
C          0.93190       -1.65290       -4.69770
C          2.30600       -1.07700       -2.68140
C          2.05970       -0.59040       -1.41910
H          1.15410        1.79360        0.33380
H         -0.25790        2.14180       -0.66720
H         -0.45180        1.87720        1.07650
H          0.22110       -0.50620        0.82130
H         -1.16680       -0.16170       -0.19220
H         -0.93720       -0.91750       -2.78330
H          0.87900       -0.79240       -5.37570
H          1.77130       -2.28300       -5.00120
H          0.01190       -2.23430       -4.80220
H          3.23040       -1.32270       -3.18080
H          2.80600       -0.37710       -0.66800
