22
gdb 10604	2.52084	1.66908	1.20541	1.2794	78.1	-0.249	0.0777	0.3267	1113.182	0.198468	-350.196618	-350.186825	-350.185881	-350.230935	36.37
C          0.87380       -0.02860       -1.24780
C         -0.05480       -0.12280       -0.03030
C          0.62120       -0.66990        1.22140
C          1.76510        0.15140        1.80550
C          1.34090        1.52600        2.33730
C         -0.25850       -1.41690        2.21450
C          0.72970       -2.16590        1.35160
O          0.27200       -2.94760        0.28360
H          1.28000       -1.01340       -1.49700
H          0.32860        0.34330       -2.12120
H          1.71400        0.65160       -1.07420
H         -0.48110        0.86390        0.19070
H         -0.89620       -0.77350       -0.28320
H          2.22410       -0.41870        2.62280
H          2.55150        0.27670        1.05090
H          2.18830        2.04430        2.79680
H          0.95600        2.16890        1.53970
H          0.55480        1.42970        3.09390
H         -0.05450       -1.32120        3.27650
H         -1.30860       -1.52690        1.96270
H          1.62440       -2.55590        1.83890
H         -0.17680       -3.71660        0.64950
