10
gdb 8620	2.26138	2.15261	1.45919	2.7843	53.13	-0.3312	-0.1027	0.2285	841.6035	0.057714	-413.459907	-413.452146	-413.451201	-413.492298	26.332
O          0.00370        1.44970        0.08870
C         -0.00610        0.06300        0.07250
C          0.72590       -0.45650       -1.21940
O          1.17530        0.34400       -1.98560
C          0.71840       -0.50790        1.23060
N          1.32680       -0.97160        2.09570
C         -1.38320       -0.47910        0.02820
N         -2.44660       -0.91970       -0.06330
H          0.47180        1.71940       -0.72290
H          0.78300       -1.54950       -1.34550
