12
gdb 3761	4.01135	3.62779	1.92817	2.3546	51.14	-0.2387	0.0262	0.2649	619.975	0.092242	-356.724118	-356.717838	-356.716893	-356.754601	21.869
C         -0.01490        1.44310       -0.06190
N          0.02910       -0.00010        0.00310
N          0.05960       -0.77180       -1.12990
C          0.09320       -1.99250       -0.63450
N          0.08690       -2.08000        0.72900
C          0.04630       -0.81120        1.07560
O          0.02320       -0.31440        2.31880
H          0.86700        1.82400       -0.58340
H         -0.91180        1.76930       -0.59470
H         -0.03340        1.83370        0.95600
H          0.12360       -2.86170       -1.27450
H          0.04160       -1.07090        2.91840
