20
gdb 7669	3.54176	1.82966	1.61935	1.645	74.15	-0.2385	0.0781	0.3165	906.7707	0.176902	-348.978062	-348.970185	-348.969241	-349.009848	30.712
C          0.19190        1.48870        0.04900
C          0.02820       -0.02460       -0.00500
C         -1.43130       -0.43420       -0.20970
C          0.98760       -0.79800       -0.98170
C          1.48700       -1.68820        0.18860
C          2.69850       -1.11670        0.93850
O          1.85750       -0.23740        1.72280
C          0.65630       -0.82280        1.17750
H          1.22040        1.75900        0.30040
H         -0.06250        1.94090       -0.91650
H         -0.46420        1.93130        0.80750
H         -1.80900       -0.06340       -1.16910
H         -1.54820       -1.52430       -0.20720
H         -2.06810       -0.02840        0.58450
H          0.46640       -1.33850       -1.77590
H          1.77010       -0.18560       -1.44010
H          1.40580       -2.76910        0.08660
H          3.22150       -1.83700        1.58150
H          3.43690       -0.56720        0.34070
H         -0.01280       -1.19390        1.96120
