15
gdb 21953	7.00549	1.07662	0.9868	3.1438	62.35	-0.2592	0.0096	0.2688	1136.9776	0.12096	-396.001457	-395.993881	-395.992936	-396.034362	26.514
O         -0.11060        1.42640        0.09690
C         -0.01850        0.01780        0.24080
C         -1.33710       -0.57670       -0.25570
C         -1.37910       -2.06180       -0.10680
N         -1.47580       -2.88450       -1.14240
N         -1.47350       -4.10180       -0.54600
C         -1.37600       -3.96690        0.79030
N         -1.31280       -2.69070        1.10940
H          0.69860        1.81590        0.44010
H          0.81590       -0.39360       -0.34940
H          0.13860       -0.27550        1.28860
H         -2.15150       -0.12380        0.32040
H         -1.48510       -0.31630       -1.30660
H         -1.54700       -4.93530       -1.10540
H         -1.35690       -4.80460        1.47150
