13
gdb 2170	3.83701	3.14546	1.83386	3.2874	49.46	-0.2735	0.001	0.2745	656.1992	0.102939	-381.632242	-381.626073	-381.625129	-381.662309	22.573
O          0.30040        1.17490        0.58950
C         -0.03720       -0.06770        0.03930
C         -1.52620       -0.26660       -0.23840
C         -1.48050       -1.27420       -1.39770
O         -0.26320       -0.97900       -2.12500
C          0.56690       -0.24700       -1.35390
O          1.60890        0.21300       -1.72990
H          1.14460        1.42460        0.18650
H          0.34000       -0.89750        0.66420
H         -2.09640       -0.63420        0.61580
H         -1.95290        0.68650       -0.56490
H         -1.42830       -2.31040       -1.04570
H         -2.31010       -1.18230       -2.10010
