9
gdb 21849	8.61041	1.25526	1.1072	1.2836	47.1	-0.3255	-0.0959	0.2296	931.1983	0.047295	-466.602569	-466.596288	-466.595344	-466.633945	20.818
O          0.03210       -0.02520        0.13150
C         -0.01910        1.14160       -0.04740
O          1.09720        1.94180        0.20200
C          0.95370        3.26640        0.12450
N         -0.13050        3.94920        0.35940
O          0.25760        5.23400        0.15630
N          1.60550        5.25350       -0.18340
N          2.02370        4.06820       -0.20650
H         -0.87150        1.72810       -0.41870
