11
gdb 4209	6.0401	2.58449	1.81001	0.9015	53.89	-0.2626	-0.0204	0.2422	620.837	0.080683	-347.459586	-347.454601	-347.453656	-347.488338	18.924
F          0.00180        0.02050        0.00340
C         -0.01630        1.35140        0.01060
C         -1.22850        2.02430        0.03040
C         -1.18280        3.41570        0.03710
N         -0.05400        4.13010        0.02580
C          1.09380        3.44680        0.00680
C          1.17720        2.05710       -0.00160
H         -2.16510        1.48070        0.04010
H         -2.10970        3.98370        0.05250
H          2.00500        4.03980       -0.00230
H          2.12820        1.53920       -0.01710
