18
gdb 6369	4.21825	1.06433	0.96615	4.2729	65.24	-0.262	-0.0238	0.2381	1242.6249	0.150667	-422.092774	-422.083238	-422.082294	-422.127786	33.677
C          0.28110        1.36750        0.18710
C          0.03070       -0.13710        0.24390
O          0.03060       -0.61980        1.58390
C         -1.27140       -0.53940       -0.48680
C         -1.40630       -2.04800       -0.54260
O         -0.76310       -2.72340       -1.31970
C         -2.33950       -2.72700        0.44190
O         -2.34360       -4.11200        0.27910
H          1.19830        1.61440        0.72860
H          0.38200        1.71500       -0.84550
H         -0.54910        1.92010        0.64550
H          0.85880       -0.66510       -0.24160
H         -0.54580       -0.04950        2.10510
H         -2.13040       -0.08630        0.02340
H         -1.24030       -0.16340       -1.51430
H         -2.00280       -2.42790        1.44950
H         -3.35070       -2.30540        0.31080
H         -1.69330       -4.28130       -0.42180
