14
gdb 15484	3.68064	1.80844	1.2309	5.9847	66.8	-0.2383	-0.0752	0.1631	925.1347	0.10666	-382.58651	-382.579235	-382.578291	-382.61877	25.689
O         -0.16850       -0.00480        0.00190
C         -0.03440        1.19280        0.00860
C          1.25340        1.91490        0.00060
C          1.35390        3.25540        0.01060
C          2.76980        3.75910       -0.00030
C          3.62580        2.47870       -0.02050
C          2.62480        1.30640       -0.01880
O          2.91280        0.13870       -0.03190
H         -0.91920        1.87220        0.02190
H          0.50260        3.93070        0.02510
H          2.94130        4.40400       -0.87090
H          2.96000        4.38890        0.87750
H          4.26260        2.40320       -0.90620
H          4.28250        2.38870        0.84910
