20
gdb 17109	4.60321	1.45104	1.37583	1.6007	73.98	-0.2419	0.0918	0.3337	1001.5481	0.178816	-348.990522	-348.983189	-348.982245	-349.022027	28.938
C         -0.00050        1.53440        0.04810
C         -0.04790        0.00720       -0.05810
C          0.71460       -0.54890       -1.26200
C          2.27430       -0.39220       -1.18890
C          2.63220       -1.89130       -1.24660
C          1.76350       -2.43490       -2.40200
C          0.69760       -2.09590       -1.33940
O          1.66840       -2.47030       -0.30860
H          1.02750        1.89980        0.14440
H         -0.43560        2.00720       -0.83980
H         -0.55950        1.88770        0.92020
H          0.36250       -0.44850        0.85050
H         -1.09590       -0.31590       -0.12140
H          0.31150       -0.11370       -2.18430
H          2.70040        0.18290       -2.01530
H          2.60310        0.05520       -0.24760
H          3.66320       -2.19860       -1.07080
H          1.75300       -1.90750       -3.36000
H          1.88360       -3.51050       -2.53400
H         -0.25970       -2.61230       -1.25670
