17
gdb 20170	3.3469	2.87908	2.05136	0.6876	66.26	-0.2156	0.062	0.2776	712.9766	0.145582	-363.821571	-363.81577	-363.814826	-363.851428	23.689
C          0.02670        1.46320       -0.31710
C          1.53400        1.50210       -0.01390
O          1.78260        1.79150        1.37680
C          1.67450        0.38550        1.75170
C          0.38020        0.06310        2.50560
C         -0.65670       -0.26740        1.38340
N         -0.03090        0.01630        0.08310
C          1.44640       -0.00960        0.27670
H         -0.57310        2.14830        0.29220
H         -0.23590        1.58930       -1.37340
H          2.22790        2.01520       -0.68150
H          2.58650        0.05370        2.25730
H          0.52040       -0.78620        3.18160
H          0.08960        0.92460        3.11250
H         -0.92580       -1.32920        1.42380
H         -1.58580        0.30190        1.47580
H          1.99980       -0.82280       -0.19270
