13
gdb 15492	3.5958	2.01041	1.29982	0.956	62.79	-0.261	-0.0344	0.2266	866.711	0.097337	-394.829492	-394.822813	-394.821869	-394.860574	24.126
N         -0.01470        1.33200        0.00700
C         -0.00320        0.06450        0.00260
N         -1.18970       -0.66170        0.00900
C         -2.49970       -0.15520        0.02060
N         -3.42890       -1.02650        0.02480
C         -2.77200       -2.33540        0.01560
C         -1.26660       -2.06930        0.00500
O         -0.32890       -2.82390       -0.00460
H          0.93590        1.69690        0.00100
H          0.86500       -0.60020       -0.00630
H         -2.63700        0.91870        0.02520
H         -3.05450       -2.92280        0.89590
H         -3.06790       -2.91700       -0.86410
