14
gdb 9005	8.31589	0.8333	0.76452	2.4428	74.68	-0.2508	-0.0588	0.192	1428.694	0.102868	-345.357195	-345.347825	-345.346881	-345.393309	30.971
C          0.10870        1.49950       -0.00420
C          0.03320        0.04750        0.05240
C         -0.03570       -1.15240        0.09750
C         -0.12410       -2.60030        0.15060
C         -1.51120       -3.16480       -0.18280
O         -2.46800       -2.48740       -0.46910
C         -1.58330       -4.61680       -0.12520
C         -1.62340       -5.81870       -0.07230
H          0.84450        1.83200       -0.74460
H         -0.85930        1.93140       -0.28020
H          0.39730        1.92190        0.96450
H          0.58960       -3.07350       -0.53900
H          0.14910       -2.98500        1.14380
H         -1.68070       -6.87950       -0.03140
