9
gdb 23857	3.40871	2.39869	1.40793	1.1637	49.46	-0.2839	-0.111	0.1729	744.623	0.047236	-474.550503	-474.544632	-474.543688	-474.580801	21.166
F          0.05580        0.07810        0.13850
C         -0.00650        1.38390        0.03740
N         -1.17920        1.89980        0.00740
O         -1.27750        3.26960       -0.09850
N         -0.18880        4.09170       -0.17200
C          0.98530        3.56440       -0.14110
C          1.25980        2.12970       -0.03180
O          2.36250        1.62670       -0.00220
H          1.81700        4.26000       -0.20260
