17
gdb 10835	4.86937	1.52054	1.21333	4.9856	66.58	-0.2427	0.0442	0.2868	989.5754	0.143254	-401.018032	-401.010336	-401.009392	-401.050376	28.187
C         -0.21410        1.51000        0.00950
C          0.02460       -0.00050        0.00120
C          0.82610       -0.44880       -1.21200
O          1.09440       -1.85080       -1.17920
C          1.46150       -2.45110       -0.02740
N          2.01550       -3.58380       -0.08490
O          1.13580       -1.85320        1.15260
C          0.81350       -0.45960        1.21830
H          0.73230        2.06210        0.01370
H         -0.78010        1.82250       -0.87340
H         -0.78260        1.81350        0.89400
H         -0.93740       -0.52790       -0.00900
H          0.28600       -0.28210       -2.14720
H          1.77610        0.10430       -1.26540
H          2.17960       -3.92580        0.85970
H          1.74490        0.11980        1.30490
H          0.25040       -0.33460        2.14700
