20
gdb 11477	4.08498	1.29065	1.17068	2.2735	71.29	-0.2441	0.0725	0.3166	1107.3948	0.177195	-386.141418	-386.132858	-386.131914	-386.175134	31.705
C          0.12640        1.26850        0.18150
O         -0.16540       -0.06900       -0.14580
C          0.58390       -0.57070       -1.23420
C          2.08100       -0.81720       -0.94190
C          2.44000       -1.93370       -1.93040
C          1.23460       -2.88950       -1.83390
O          1.31600       -3.71200       -0.67020
C          0.02320       -1.95550       -1.64020
H          1.15710        1.39760        0.54390
H         -0.01980        1.93990       -0.68050
H         -0.56150        1.56490        0.97750
H          0.49690        0.13360       -2.07970
H          2.70230        0.07550       -1.04900
H          2.17440       -1.18630        0.08490
H          2.51190       -1.53460       -2.95070
H          3.38910       -2.43390       -1.71010
H          1.13310       -3.51700       -2.73040
H          2.10690       -4.25550       -0.74880
H         -0.60780       -2.34190       -0.83720
H         -0.58470       -1.89090       -2.54560
