22
gdb 17887	3.46053	1.83384	1.62051	0.0778	80.68	-0.2678	0.0845	0.3523	935.0977	0.203814	-313.077874	-313.070587	-313.069643	-313.108771	30.03
C         -0.14370        1.48440       -0.01110
C          0.03640       -0.02990        0.01360
C          1.21340       -0.58430       -0.84570
C          2.11770       -0.42240        0.41280
C          0.81030       -0.59820        1.24210
C          0.46610       -2.08940        1.39970
C          0.95100       -2.89920        0.17110
C          0.95630       -2.07250       -1.13930
H          0.79530        2.01630        0.17370
H         -0.52420        1.81750       -0.98340
H         -0.85960        1.80600        0.75380
H         -0.93180       -0.51090       -0.17660
H          1.48190       -0.03050       -1.75040
H          2.93190       -1.13630        0.56530
H          2.52460        0.58690        0.49810
H          0.72130       -0.05670        2.18880
H          0.92510       -2.50000        2.30680
H         -0.61920       -2.18780        1.52970
H          1.97440       -3.23570        0.36650
H          0.35820       -3.81120        0.05060
H         -0.00230       -2.16660       -1.66520
H          1.72100       -2.47260       -1.81550
