17
gdb 15390	2.97996	1.45552	1.08019	3.9891	69.73	-0.2613	0.0299	0.2912	1110.5861	0.141461	-363.85258	-363.844009	-363.843064	-363.886462	29.962
C         -0.45790        1.32490       -0.38290
O         -0.50860       -0.08070       -0.46970
C         -1.00120       -0.68250        0.70460
C         -1.04290       -2.17140        0.48970
C         -1.97050       -3.03010        1.29180
C         -2.24050       -2.82210       -0.19210
C         -3.36280       -2.02310       -0.59710
N         -4.27160       -1.38210       -0.91690
H         -0.06920        1.69540       -1.33400
H         -1.45560        1.75740       -0.21290
H          0.20740        1.66020        0.42880
H         -0.34930       -0.44950        1.56480
H         -2.00780       -0.30320        0.94700
H         -0.08660       -2.60360        0.21220
H         -1.64250       -4.01560        1.60050
H         -2.64720       -2.54030        1.98300
H         -2.03080       -3.65430       -0.85490
