10
gdb 21440	3.33703	2.60258	1.4622	2.5775	52.32	-0.2859	-0.0832	0.2028	745.564	0.060068	-450.57796	-450.571705	-450.570761	-450.609117	22.068
N         -0.01130        1.19830        0.44890
C         -0.01640        0.02050        0.00490
O          1.12590       -0.58110       -0.47010
N          1.11700       -1.89420       -0.96480
C          0.00030       -2.49660       -0.95030
O         -1.20240       -2.04530       -0.51870
C         -1.30430       -0.76280       -0.01190
O         -2.35570       -0.36610        0.36690
H          0.92640        1.60350        0.39870
H         -0.03900       -3.51150       -1.32550
