19
gdb 17570	3.44246	2.30308	1.89627	1.5718	74.31	-0.2261	0.092	0.3181	799.8894	0.16785	-327.875144	-327.868666	-327.867722	-327.905153	27.447
C         -0.03510        1.52910        0.05940
C          0.04210        0.02050        0.08010
C          0.85420       -0.82140       -0.98130
C          0.67630       -1.92250        0.10460
C          0.86410       -0.77620        1.13400
N         -0.79380       -2.18540       -0.04710
C         -1.64690       -1.74300        1.07120
C         -1.27510       -0.77690        0.00570
H          0.96290        1.97780        0.02940
H         -0.58710        1.88410       -0.81870
H         -0.54870        1.91110        0.94890
H          0.38250       -1.01140       -1.94870
H          1.88500       -0.48060       -1.10570
H          1.26420       -2.83900        0.12770
H          1.90250       -0.44030        1.16150
H          0.49720       -0.87340        2.15660
H         -2.64210       -2.17860        1.03630
H         -1.24630       -1.65520        2.07440
H         -2.00850       -0.47210       -0.73810
