15
gdb 14087	3.74874	1.66789	1.39516	2.8756	63.44	-0.2559	0.024	0.2799	898.679	0.118596	-399.771846	-399.764432	-399.763488	-399.803542	27.535
O         -0.13950        1.38800       -0.06120
C         -0.04560       -0.00080        0.04240
C         -0.53080       -0.68630        1.29140
C         -1.35920       -0.71920        0.03260
C         -2.73710       -0.15440       -0.27900
O         -3.00640       -1.34400       -1.09790
C         -1.76360       -1.87950       -0.80680
N         -1.22400       -2.95730       -1.15330
H          0.57280        1.77680        0.45740
H          0.76830       -0.46600       -0.51230
H         -0.05570       -1.61290        1.59530
H         -0.89260       -0.05240        2.09460
H         -3.44230       -0.08940        0.55340
H         -2.75840        0.75560       -0.88170
H         -1.83540       -3.50710       -1.75810
