17
gdb 16311	3.09796	1.94469	1.40412	3.4648	68.68	-0.2416	0.011	0.2526	921.6981	0.142392	-363.863053	-363.855357	-363.854413	-363.895187	28.818
C         -0.20260        1.51830       -0.00700
C          0.04380        0.00490        0.07720
C          0.77750       -0.51300       -1.12760
C          0.10480       -0.94970       -2.43820
C          0.98820       -1.90600       -1.69820
N          2.40690       -1.60370       -1.91860
C          2.24580       -0.27530       -1.47230
O          3.01160        0.64510       -1.40810
H          0.74380        2.05420       -0.12190
H         -0.83450        1.76570       -0.86620
H         -0.69920        1.88440        0.89640
H          0.62620       -0.22240        0.97850
H         -0.90950       -0.52780        0.18090
H         -0.96740       -1.10870       -2.35250
H          0.42650       -0.54340       -3.39320
H          0.68320       -2.85790       -1.28390
H          2.90230       -1.83630       -2.77290
