20
gdb 15194	5.09908	0.87266	0.82457	1.1799	73.36	-0.2416	0.0907	0.3323	1468.9993	0.174949	-386.099161	-386.089824	-386.088879	-386.134568	32.577
C         -0.28070        1.35050       -0.20150
O         -0.30320       -0.05220       -0.10860
C          0.66960       -0.66960       -0.91890
C          0.52110       -2.17320       -0.81440
O         -0.64590       -2.56780       -1.51010
C         -0.93160       -3.92380       -1.38210
C         -1.68350       -4.40460       -0.16610
C         -2.36620       -4.31380       -1.51790
H          0.68880        1.76820        0.11610
H         -0.48060        1.69650       -1.22820
H         -1.06220        1.73530        0.45830
H          0.55500       -0.36470       -1.97210
H          1.68580       -0.38260       -0.59640
H          1.41250       -2.65650       -1.24810
H          0.46060       -2.46370        0.24470
H         -0.17260       -4.58540       -1.80400
H         -1.45260       -5.38300        0.24090
H         -1.95190       -3.65340        0.56840
H         -3.07070       -3.50240       -1.65950
H         -2.60750       -5.22780       -2.04850
