15
gdb 16293	3.31627	1.8028	1.46752	4.8828	66.81	-0.2716	0.0183	0.29	876.3107	0.119282	-362.647091	-362.639782	-362.638838	-362.678569	27.403
O         -0.10460        1.43840       -0.07850
C         -0.01060        0.04120        0.03290
C          0.24440       -0.58840        1.45010
C         -1.11510       -1.28560        1.36540
C         -2.20220       -0.27860        1.19040
C         -1.37660       -0.65020       -0.02440
C         -1.94840       -1.23100       -1.19320
N         -2.39420       -1.71040       -2.14840
H          0.78500        1.80510       -0.10360
H          0.67090       -0.38060       -0.71500
H          1.09500       -1.27230        1.45570
H          0.34980        0.13230        2.26600
H         -1.31910       -2.31090        1.64450
H         -3.21410       -0.66750        1.17860
H         -2.09880        0.72410        1.59340
