15
gdb 13318	5.16961	1.29803	1.14966	4.4508	61.25	-0.2745	0.0309	0.3053	1008.3247	0.119817	-399.808727	-399.801288	-399.800344	-399.841472	25.92
N         -0.13220       -1.08940        0.28000
C         -0.05240        0.06080        0.21020
C          0.04120        1.51380        0.10010
C          1.48020        2.00010       -0.16420
C          1.59530        3.53480       -0.09960
O          1.91290        3.76250        1.26460
C          2.78130        2.71040        1.59600
O          2.33730        1.56380        0.88430
H         -0.61560        1.84520       -0.71290
H         -0.32070        1.97050        1.02760
H          1.83980        1.59580       -1.11620
H          2.39830        3.89280       -0.76050
H          0.67090        4.06610       -0.33530
H          3.81930        2.94450        1.30240
H          2.72340        2.52760        2.67290
