13
gdb 4191	5.04526	1.65503	1.34067	1.8724	64.55	-0.2415	-0.0535	0.188	861.8692	0.095902	-398.537427	-398.531058	-398.530114	-398.567867	24.532
O         -0.07530        1.31610       -0.00770
N          0.02340       -0.07470        0.03360
C         -1.12570       -0.63510       -0.00140
C         -2.48180       -0.06610       -0.03340
C         -3.39300       -1.04970        0.05210
C         -2.71690       -2.38770        0.08690
O         -1.95420       -2.66400       -1.10720
C         -1.26860       -2.12680        0.03640
H          0.84760        1.59110        0.02540
H         -2.67470        0.99210       -0.13510
H         -4.46800       -0.92210        0.05720
H         -3.16140       -3.25230        0.56910
H         -0.50060       -2.75330        0.47610
