20
gdb 12021	4.12481	1.21303	1.16454	1.8177	76.21	-0.2508	0.0898	0.3406	1153.1116	0.174995	-348.9838	-348.974888	-348.973944	-349.017294	33.122
C         -0.08760        1.53750       -0.11740
C         -0.08110        0.03930        0.09740
C         -1.22680       -0.70050       -0.56240
O          1.20040       -0.60180       -0.05100
C          0.59760       -0.58350        1.25150
C          1.30840        0.14160        2.34290
C          0.82140       -0.02010        3.76500
C          2.12160       -0.64860        3.34220
H          0.79330        2.01400        0.31460
H         -0.09820        1.76170       -1.18980
H         -0.98220        1.98850        0.32580
H         -1.22160       -0.52650       -1.64430
H         -1.14570       -1.77660       -0.39060
H         -2.19110       -0.35570       -0.17310
H          0.21430       -1.55940        1.56600
H          1.70220        1.11460        2.07260
H          0.84800        0.84790        4.41390
H         -0.02660       -0.67510        3.93750
H          2.15100       -1.72700        3.22570
H          3.04850       -0.21470        3.69970
