17
gdb 4032	3.60799	1.21241	0.97843	2.3481	63.95	-0.255	-0.006	0.249	1172.7686	0.139445	-438.087775	-438.078301	-438.077357	-438.122432	33.634
C         -1.37610        0.92220        0.31870
C         -0.13460        0.16560       -0.06600
N          0.85360       -0.07040        0.70940
O          0.65090        0.44450        1.99390
C         -0.02520       -0.36060       -1.47970
O         -0.10630        0.72200       -2.42420
C          1.21100       -1.20790       -1.78580
O          1.18240       -1.62750       -3.13520
H         -1.12750        1.77910        0.94900
H         -1.90390        1.26190       -0.57380
H         -2.04700        0.28080        0.90240
H          1.47060        0.20790        2.44130
H         -0.91560       -0.96330       -1.70080
H          0.60350        1.33980       -2.20880
H          2.11890       -0.62870       -1.55460
H          1.22820       -2.10260       -1.15800
H          0.91130       -0.85170       -3.64250
