18
gdb 19706	5.42651	1.72527	1.58055	1.5932	71.06	-0.2334	0.1003	0.3336	860.7888	0.155877	-347.760463	-347.754107	-347.753163	-347.790568	25.998
C         -0.17120        1.57690       -0.00470
C          0.01160        0.06660        0.02150
C          1.22840       -0.59600       -0.67570
C          2.15730       -0.18080        0.51980
C          3.13000       -1.33350        0.73430
O          2.26660       -2.46360        0.52030
C          1.03020       -1.84120        0.23850
C          0.79710       -0.61630        1.17160
H          0.75240        2.11830        0.21810
H         -0.51970        1.90710       -0.98950
H         -0.92300        1.88810        0.72900
H         -0.94190       -0.42710       -0.20650
H          1.48750       -0.59210       -1.73600
H          2.53040        0.83690        0.61810
H          3.95520       -1.34790        0.01100
H          3.54960       -1.36700        1.74780
H          0.25240       -2.58010        0.04870
H          0.55990       -0.63570        2.23680
