16
gdb 8278	5.4502	1.09208	0.99875	3.4963	65.91	-0.2477	0.0171	0.2649	1140.7294	0.130464	-379.896354	-379.888449	-379.887505	-379.929147	28.507
O          0.12160        1.46030       -0.02830
C          0.08360        0.05720       -0.03190
C          0.23500       -0.61680        1.35990
N         -1.24100       -0.70370        1.42180
C         -1.82710       -1.85730        2.06910
C         -3.29330       -1.80400        2.03480
N         -4.44690       -1.77020        1.99150
C         -1.33540       -0.57300       -0.05080
H         -0.50170        1.77020        0.63900
H          0.77440       -0.26940       -0.80910
H          0.73020       -1.59960        1.29480
H          0.70110       -0.02560        2.15480
H         -1.51000       -2.81650        1.61450
H         -1.50680       -1.88020        3.11760
H         -2.15810        0.05140       -0.41130
H         -1.35540       -1.54260       -0.57410
