16
gdb 19455	5.22701	1.54763	1.53086	1.2754	70.65	-0.2366	0.0452	0.2818	869.8481	0.131448	-346.543447	-346.536882	-346.535938	-346.573899	26.38
C         -0.08260       -1.21440       -0.09360
C         -0.04210       -0.01330       -0.03470
C         -0.00250        1.43010        0.01540
C         -0.02320        2.08360        1.45440
C          1.49710        1.74200        1.53570
C          1.41290        2.11160        0.03800
O          1.08530        3.50350        0.04330
C          0.05230        3.56060        1.05880
H         -0.12010       -2.27420       -0.14710
H         -0.69190        1.86880       -0.71270
H         -0.74510        1.78510        2.21220
H          2.13320        2.36850        2.16480
H          1.68070        0.68280        1.71060
H          2.18540        1.90750       -0.70050
H         -0.87500        3.95180        0.62510
H          0.36770        4.21370        1.88080
