13
gdb 20464	4.90163	2.06862	1.50068	3.4815	58.51	-0.2581	-0.0467	0.2114	772.8265	0.098623	-394.724016	-394.718225	-394.717281	-394.753986	22.023
C         -0.00020        1.51770        0.21750
N          1.26580        1.96110       -0.43450
C          2.20990        0.80920       -0.51330
C          1.30920       -0.38680       -0.38550
N          1.33200       -1.67420       -0.53190
O          0.04890       -2.07850       -0.19820
N         -0.75330       -1.00570        0.15770
C          0.02240        0.02570        0.04000
H          0.00900        1.77960        1.28280
H         -0.86240        2.01200       -0.23530
H          1.04460        2.24740       -1.38110
H          2.78480        0.84290       -1.44120
H          2.92370        0.84530        0.31910
