20
gdb 14991	4.20534	1.34718	1.09165	1.4286	76.92	-0.2329	0.032	0.2648	1116.4072	0.178835	-349.020029	-349.011985	-349.01104	-349.052371	30.745
O         -0.03300        1.44780        0.00610
C          0.02840        0.02830       -0.00270
C         -1.40250       -0.51460        0.03770
C         -1.42230       -2.03740       -0.17080
C         -2.80340       -2.62300        0.14700
C         -3.18910       -2.36030        1.60980
C         -2.86890       -0.94850        2.02870
C         -2.09390       -0.12560        1.32290
H          0.86160        1.78860        0.09300
H          0.53330       -0.33950       -0.91080
H          0.58860       -0.35180        0.86680
H         -1.92850       -0.03270       -0.80130
H         -1.12740       -2.27940       -1.19830
H         -0.67500       -2.50120        0.48870
H         -3.54840       -2.15820       -0.51150
H         -2.82280       -3.69740       -0.06470
H         -4.25750       -2.56060        1.76170
H         -2.66510       -3.06660        2.27180
H         -3.30920       -0.60150        2.96120
H         -1.91430        0.88950        1.66520
