18
gdb 14531	4.29372	1.38808	1.37696	3.26	67.48	-0.2357	0.0593	0.295	981.7879	0.152766	-384.893241	-384.88494	-384.883996	-384.926684	30.059
O         -0.09800        1.35880        0.21210
C          0.03830       -0.03160        0.05730
C          1.11580       -0.58150       -0.84130
C          1.21990       -0.73940        0.66860
C         -1.31620       -0.68400        0.08240
C         -2.28510       -0.31620        1.23220
O         -3.31660        0.06160        0.29820
C         -2.42690       -0.10110       -0.82480
H          0.77330        1.76520        0.19440
H          0.90550       -1.45920       -1.44340
H          1.78210        0.13070       -1.31870
H          1.95490       -0.13140        1.18750
H          1.08080       -1.72520        1.09990
H         -1.19690       -1.76280       -0.03860
H         -2.60310       -1.13630        1.88680
H         -1.95230        0.53180        1.84180
H         -2.16780        0.85890       -1.28600
H         -2.84230       -0.77330       -1.58480
