19
gdb 18960	6.13234	1.38839	1.38269	1.0307	76.22	-0.2097	0.0869	0.2966	988.4857	0.165929	-327.826459	-327.819385	-327.818441	-327.857696	27.936
C         -0.11440        1.64290        0.05890
C         -0.10840        0.11610        0.01560
N          0.67880       -0.43270        1.12010
C          2.16030       -0.51190        0.91240
C          2.28230       -1.72390        1.88540
C          3.12560       -2.54160        0.88890
C          2.13530       -1.78460       -0.01780
C          0.97870       -1.89420        1.04790
H          0.89400        2.04670       -0.08220
H         -0.75000        2.05310       -0.73200
H         -0.48510        1.99600        1.02530
H         -1.13340       -0.25900        0.13110
H          0.24350       -0.22650       -0.97390
H          2.81060        0.36220        0.84730
H          2.33350       -1.66070        2.97180
H          4.18130       -2.26800        0.79880
H          3.01710       -3.62960        0.93220
H          2.05220       -1.82010       -1.10370
H          0.21350       -2.66780        1.14000
