20
gdb 12278	2.90929	1.56696	1.27361	2.7841	70.48	-0.2436	0.07	0.3136	1052.2952	0.176228	-386.125976	-386.117001	-386.116057	-386.159749	32.966
C          0.47370        1.34170       -0.38070
C          0.10820       -0.06640        0.05080
O          0.78970       -1.07830       -0.73750
C          1.42590       -1.64870        0.43600
C          2.93700       -1.58610        0.26910
O          3.31150       -2.26500       -0.91490
C          0.69130       -0.65240        1.37100
C          1.48540        0.23890        2.31910
H          1.55090        1.51950       -0.32100
H          0.16280        1.50010       -1.41820
H         -0.03820        2.08280        0.24290
H         -0.97860       -0.20010       -0.03230
H          1.12750       -2.69800        0.55790
H          3.27600       -0.53900        0.24890
H          3.44040       -2.08700        1.10370
H          2.74330       -1.90560       -1.60830
H         -0.08820       -1.16390        1.94190
H          2.27740        0.79800        1.81500
H          0.82620        0.96550        2.80570
H          1.95230       -0.35770        3.10990
