22
gdb 16335	2.83015	1.77524	1.36458	0.3219	81.82	-0.2414	0.0809	0.3224	1038.1659	0.200166	-313.053658	-313.044963	-313.044019	-313.086526	33.394
C          0.18200        1.51370       -0.22010
C         -0.09970        0.03120        0.06440
C          0.64440       -0.50660        1.25810
C          2.06590       -1.00060        1.16760
C          0.99390       -1.95410        1.62000
C          0.66150       -1.69900        3.09310
C          0.26950       -0.22400        2.73190
C          0.94380        0.92120        3.47950
H          1.24960        1.68390       -0.39310
H         -0.36360        1.85660       -1.10510
H         -0.12190        2.14520        0.62130
H         -1.17900       -0.11090        0.21330
H          0.16650       -0.56450       -0.81850
H          2.42890       -1.15460        0.15550
H          2.83470       -0.66840        1.86190
H          0.76920       -2.86090        1.07000
H         -0.18470       -2.28110        3.46520
H          1.49740       -1.81720        3.79250
H         -0.81800       -0.11150        2.80740
H          2.03520        0.85820        3.41740
H          0.64410        1.89460        3.07620
H          0.67330        0.90510        4.54150
