20
gdb 1997	5.40145	1.43993	1.3227	1.0589	72.03	-0.2301	0.0884	0.3185	1005.0328	0.182393	-291.017433	-291.009082	-291.008138	-291.050031	30.6
C         -0.22920        1.46280       -0.03570
C          0.07190       -0.03840        0.05010
C          0.73900       -0.55100       -1.23230
C          0.94050       -0.36850        1.27210
N          0.27120       -0.02170        2.52210
C         -0.54580       -1.06770        3.12820
C          0.76300       -0.68120        3.72430
H          0.69150        2.03310       -0.21130
H         -0.91590        1.68000       -0.86050
H         -0.67370        1.82360        0.89460
H         -0.88120       -0.57220        0.17590
H          1.70970       -0.06560       -1.39090
H          0.90980       -1.63240       -1.19520
H          0.11870       -0.33950       -2.10920
H          1.22130       -1.43860        1.24660
H          1.87470        0.20720        1.22330
H         -1.47850       -0.74310        3.58070
H         -0.59480       -2.03250        2.62440
H          1.58360       -1.38980        3.61800
H          0.80520       -0.06790        4.62010
