18
gdb 12023	4.42132	1.44287	1.2759	1.937	68.62	-0.2606	0.0773	0.338	1011.4188	0.151472	-384.904555	-384.896126	-384.895182	-384.93725	31.023
C          0.34950        1.46520       -0.06680
C          0.03150        0.00100        0.13820
C         -1.15870       -0.51680       -0.64250
O          1.16710       -0.89290        0.13110
C          0.44830       -0.73750        1.35010
C          1.18420       -0.19170        2.53730
C          2.62590       -0.43050        2.70730
O          2.12440        0.86270        2.36230
H          1.26420        1.74290        0.45330
H          0.46850        1.67060       -1.13670
H         -0.47350        2.08900        0.29930
H         -1.00190       -0.36500       -1.71600
H         -1.31110       -1.58460       -0.46690
H         -2.07130        0.01900       -0.35970
H         -0.16010       -1.60420        1.62800
H          0.56740       -0.09990        3.43320
H          3.04850       -0.51600        3.70670
H          3.16310       -0.93960        1.91050
