9
gdb 338	7.04619	2.65258	2.11311	2.9799	40.49	-0.3073	-0.0733	0.234	547.2998	0.059833	-321.233569	-321.227582	-321.226638	-321.263248	19.861
O          0.04940        1.47660        0.12900
C          0.01590        0.08770        0.06680
C          0.68190       -0.42180       -1.22480
O          1.14870        0.36030       -2.00810
C          0.69190       -0.55390        1.21440
N          1.22650       -1.08170        2.09190
H          0.59680        1.75960       -0.62280
H         -1.02560       -0.27550        0.05830
H          0.69980       -1.51630       -1.37550
