18
gdb 19198	3.15172	2.03413	1.70017	2.0737	66.7	-0.2464	0.0731	0.3195	838.4001	0.155508	-384.922613	-384.915418	-384.914474	-384.953435	28.859
O         -0.02830        1.51360       -0.00940
C          0.02970        0.10800        0.02840
C          0.15280       -0.62990        1.40280
C         -0.96690        0.03270        2.22310
C         -2.10150        0.04110        1.13960
C         -1.33870       -0.61600       -0.02590
C         -0.62460       -1.78810        0.69970
O          0.12020       -2.58550       -0.19720
H          0.87040        1.85390       -0.04330
H          0.72620       -0.29400       -0.71030
H          1.11530       -0.80190        1.88980
H         -1.23210       -0.55060        3.10980
H         -0.69660        1.04140        2.54150
H         -2.97570       -0.54410        1.43870
H         -2.42940        1.05190        0.89220
H         -1.86790       -0.77510       -0.96510
H         -1.25780       -2.40640        1.35140
H          0.73550       -3.11510        0.31960
