24
gdb 6800	6.0948	0.62734	0.59422	1.3589	82.92	-0.2607	0.0739	0.3346	1972.2504	0.221395	-351.421494	-351.410726	-351.409782	-351.45773	38.531
C          0.04400        1.59410       -0.01630
C          0.01790        0.06340       -0.00400
C         -1.40000       -0.51770        0.02270
C         -1.43040       -2.04900        0.02360
C         -2.84590       -2.63270        0.05940
C         -2.88000       -4.16440       -0.02460
C         -4.29820       -4.72390        0.09280
O         -2.23860       -4.63960       -1.20870
H          1.06910        1.97770       -0.03480
H         -0.47590        1.99210       -0.89510
H         -0.44910        2.00600        0.87150
H          0.54790       -0.32030       -0.88590
H          0.57580       -0.30590        0.86670
H         -1.93010       -0.13810        0.90800
H         -1.96080       -0.14250       -0.84540
H         -0.91420       -2.43400       -0.86350
H         -0.86520       -2.42380        0.88860
H         -3.35960       -2.31600        0.97720
H         -3.43790       -2.22410       -0.77460
H         -2.26820       -4.57370        0.79000
H         -4.93910       -4.32670       -0.70490
H         -4.28540       -5.81400        0.00850
H         -4.75530       -4.45320        1.05020
H         -2.76480       -4.34250       -1.95990
