18
gdb 5120	3.28407	1.99298	1.2646	1.5282	76.16	-0.1724	0.0528	0.2252	969.4889	0.15419	-344.018419	-344.009508	-344.008564	-344.051963	31.902
C          0.01590        1.44090        0.01440
N          0.02060       -0.00390        0.02170
C         -0.01070       -0.80070       -1.09340
C         -0.00990       -2.11560       -0.68920
C          0.01060       -2.11570        0.73430
N         -0.01990       -3.23950        1.60370
C          0.01750       -0.79870        1.15550
C          0.00890       -0.25070        2.54200
H          0.87180        1.84370        0.56700
H          0.07820        1.79000       -1.01800
H         -0.90050        1.84590        0.45970
H         -0.02370       -0.36240       -2.07890
H         -0.01720       -2.98140       -1.33480
H         -0.17030       -4.09310        1.07950
H          0.85100       -3.35020        2.11240
H          0.96950        0.18850        2.84620
H         -0.75570        0.52390        2.68080
H         -0.21730       -1.06460        3.23630
