14
gdb 4759	6.85317	1.31707	1.11273	3.8299	62.22	-0.1817	0.0435	0.2252	1015.3843	0.106156	-415.866103	-415.857875	-415.856931	-415.899336	28.715
C          0.00000        1.39250        0.02270
N          0.00870       -0.05970       -0.03120
C         -1.10440       -0.65350       -0.03060
N         -1.30330       -2.02570       -0.07510
C         -2.65860       -2.29200        0.00550
O         -3.04140       -3.58320        0.00910
C         -3.30660       -1.11950        0.04920
O         -2.35900       -0.08750        0.01450
H          1.02150        1.74760        0.18300
H         -0.36410        1.83790       -0.91430
H         -0.63020        1.78650        0.83260
H         -0.55980       -2.69470        0.01560
H         -4.00110       -3.62730        0.07370
H         -4.34320       -0.84060        0.07720
