16
gdb 11006	4.0441	1.75619	1.4843	3.2137	64.69	-0.2392	-0.0271	0.2121	876.7797	0.130116	-383.760764	-383.753541	-383.752596	-383.792063	27.487
C          0.02940        1.50890       -0.05000
C         -0.07240        0.01680        0.09760
C         -1.31650       -0.73360       -0.37510
C         -1.17490       -2.15440        0.21560
C         -0.24420       -1.99210        1.42490
O         -0.21840       -2.67650        2.41510
C          0.57830       -0.75330        1.18140
O          1.11510       -0.73800       -0.15880
H          0.98660        1.87020        0.33310
H         -0.04640        1.79380       -1.10520
H         -0.78000        2.00850        0.49190
H         -2.21040       -0.23640        0.01760
H         -1.38960       -0.72670       -1.46690
H         -2.11870       -2.60660        0.52420
H         -0.69610       -2.83440       -0.49600
H          1.19750       -0.32400        1.96280
