17
gdb 2429	5.23866	2.73732	2.35937	0.2939	67.57	-0.2384	0.1023	0.3407	648.6045	0.149749	-272.537685	-272.531719	-272.530775	-272.566905	24.285
C         -0.06050        1.47130        0.00640
C          0.03220       -0.02520       -0.01290
C          0.91050       -0.89020       -0.91980
C          0.03910       -2.08830       -0.45590
C          0.38440       -2.24030        1.05070
C         -0.28750       -0.88100        1.22860
C         -1.08300       -1.04660       -0.04910
H          0.86220        1.92400        0.38900
H         -0.23550        1.87340       -0.99830
H         -0.88310        1.80950        0.64610
H          0.74030       -0.64670       -1.97340
H          1.98960       -0.94360       -0.72560
H         -0.09250       -2.96200       -1.09100
H         -0.20040       -3.03550        1.52230
H          1.44220       -2.35450        1.31790
H         -0.60950       -0.40780        2.14840
H         -2.13960       -0.96220       -0.26030
