16
gdb 5586	3.35167	1.93045	1.24402	2.5846	68.68	-0.1861	0.0339	0.22	959.0194	0.131188	-379.95774	-379.949612	-379.948668	-379.990671	28.67
C          0.04160        1.43370       -0.00890
O          0.02540        0.01240        0.00960
C          0.60450       -0.59610       -1.04950
C          0.69080       -1.96030       -1.21200
C          0.22770       -3.09720       -0.37040
N          1.35420       -2.09640       -2.42430
C          1.61910       -0.85460       -2.90290
N          1.17520        0.08270       -2.08890
H          1.06590        1.82090       -0.02700
H         -0.48960        1.82750       -0.88200
H         -0.46060        1.74990        0.90740
H         -0.49850       -3.73690       -0.88860
H          1.05340       -3.73980       -0.03840
H         -0.26040       -2.69880        0.52180
H          1.59390       -2.96830       -2.86520
H          2.13170       -0.68750       -3.83790
