15
gdb 14413	3.37672	2.17501	1.77046	2.9309	65.19	-0.2196	0.0016	0.2212	784.5822	0.119573	-362.615364	-362.608739	-362.607795	-362.646035	25.558
C         -0.07690        1.53330       -0.02150
C          0.05160        0.04790       -0.01200
C          0.07580       -1.03740       -1.02000
N          1.29050       -1.65030       -0.46730
C          0.95020       -0.96140        0.81340
C         -0.40450       -1.55300        1.28090
O         -0.80190       -1.98830        2.32630
C         -1.05650       -1.06240        0.03030
H          0.87120        2.00680       -0.29720
H         -0.83540        1.85090       -0.74370
H         -0.37210        1.91280        0.96230
H         -0.14810       -1.00930       -2.08020
H          1.24400       -2.66940       -0.38950
H          1.75490       -0.73410        1.50910
H         -2.10480       -0.96300       -0.21530
