22
gdb 15418	4.67855	0.8289	0.76386	1.2928	79.25	-0.2609	0.0813	0.3421	1559.5252	0.199295	-350.191939	-350.182116	-350.181172	-350.227162	35.28
C         -0.41040        1.50640        0.27250
C          0.19020        0.14410       -0.09510
C          0.89280       -0.51270        1.07670
C          0.13150       -1.35280        2.07580
C          1.15500       -1.99920        1.16710
C          0.74130       -2.98270        0.09270
C          0.61710       -4.40430        0.63130
O          0.24090       -5.24920       -0.44660
H          0.36440        2.19850        0.62090
H         -0.90620        1.96750       -0.58760
H         -1.14850        1.40680        1.07520
H         -0.60390       -0.50970       -0.47210
H          0.89920        0.27050       -0.92420
H          1.67930        0.10790        1.50220
H          0.34960       -1.25110        3.13350
H         -0.91490       -1.54940        1.85790
H          2.09680       -2.25930        1.64690
H         -0.22070       -2.70180       -0.34820
H          1.47110       -2.98720       -0.72670
H          1.57860       -4.72070        1.06870
H         -0.13060       -4.42790        1.44020
H          0.15600       -6.14580       -0.11000
