14
gdb 15755	2.73926	1.81313	1.28312	0.3451	59.43	-0.2609	-0.06	0.2009	931.0676	0.104671	-419.671348	-419.663391	-419.662447	-419.704695	27.125
O         -0.68490        2.91760       -0.63620
C         -0.01530        1.93300       -0.45640
C          1.45950        1.96970       -0.08230
C          2.29460        1.79630       -1.35880
O          2.44660        0.72130       -1.88770
C          2.89360        3.03810       -1.95770
C          2.11610        4.29630       -2.03340
O          3.16370        4.13640       -1.08640
H         -0.43720        0.91550       -0.58840
H          1.69460        2.91710        0.40390
H          1.68960        1.12370        0.57030
H          3.64780        2.83420       -2.71500
H          2.32650        4.97410       -2.85830
H          1.11010        4.33550       -1.62040
