16
gdb 2413	3.61281	3.26909	2.16227	2.0425	61.78	-0.1989	0.0725	0.2713	658.8006	0.13655	-325.684055	-325.677377	-325.676433	-325.714204	25.697
C          0.01770        1.52700       -0.02710
N          0.04340        0.06440        0.03740
C         -1.11340       -0.70910        0.64150
C         -0.12890       -1.90770        0.69740
C          0.62220       -0.65930        1.24000
C         -0.63830       -0.38720        2.10460
O         -0.77240        0.88500        2.67910
H          1.03250        1.86790       -0.26220
H         -0.61870        1.80960       -0.87390
H         -0.32900        2.04820        0.86830
H         -2.11860       -0.67860        0.21570
H         -0.34530       -2.71560        1.39830
H          0.21630       -2.25190       -0.27490
H          1.67220       -0.56940        1.52380
H         -0.87230       -1.16850        2.84360
H         -1.64240        0.93920        3.08680
