13
gdb 4318	3.87398	2.02336	1.32964	6.1149	64.26	-0.2264	-0.029	0.1974	846.9234	0.098554	-394.862747	-394.856099	-394.855155	-394.893393	25.446
N         -0.01330        1.34780       -0.09150
C          0.01480       -0.01180       -0.03720
N         -1.14570       -0.63210       -0.01910
C         -1.20070       -2.00110       -0.00750
O         -2.21160       -2.67140        0.00500
N          0.05790       -2.67550       -0.00370
C          1.24740       -2.03530       -0.01520
C          1.28790       -0.68030       -0.03360
H          0.80930        1.88000        0.13020
H         -0.90980        1.78310        0.05450
H         -0.00040       -3.68240        0.01070
H          2.13690       -2.65550       -0.01010
H          2.22420       -0.14070       -0.05270
