12
gdb 4287	4.08132	1.88314	1.28858	5.2914	59.4	-0.2324	-0.0308	0.2016	849.8632	0.084813	-418.526902	-418.520547	-418.519603	-418.557371	24.07
O          0.05380        1.33370        0.00780
C         -0.03620       -0.00010        0.00100
C         -1.19870       -0.68200        0.00380
C         -1.20540       -2.13970       -0.00410
O         -2.21890       -2.82310       -0.00210
C          0.15180       -2.72490       -0.01490
C          1.24020       -1.95180       -0.01680
O          1.18320       -0.58440       -0.00910
H          0.98760        1.57920        0.00360
H         -2.13410       -0.13950        0.01200
H          0.24960       -3.80320       -0.02130
H          2.26800       -2.28860       -0.02450
