14
gdb 290	5.07057	3.5194	2.14443	3.6689	50.94	-0.2306	0.0604	0.2909	591.7927	0.119711	-303.785832	-303.778493	-303.777549	-303.816841	25.1
C          0.15160        1.42290        0.02330
N         -0.03100       -0.01610        0.00230
C         -0.04520       -0.70530        1.27610
C         -0.13020       -0.65390       -1.21370
N         -0.18640       -2.04810       -1.15220
O         -0.21410       -0.06190       -2.27720
H          1.11060        1.69450        0.48490
H          0.13040        1.78150       -1.00440
H         -0.65080        1.90910        0.59280
H         -0.64930       -1.61290        1.21480
H          0.96240       -0.96970        1.63370
H         -0.50090       -0.05670        2.03130
H          0.38810       -2.51360       -0.46590
H         -0.10020       -2.44410       -2.07660
