15
gdb 2590	3.16587	2.82126	1.78527	1.0263	63.61	-0.242	0.0377	0.2797	745.3473	0.12259	-308.455477	-308.447878	-308.446934	-308.486801	27.909
C          0.14980        1.29200        0.19450
O         -0.19580       -0.03000       -0.18480
C          0.58680       -0.54300       -1.22410
C          1.93680       -1.13680       -0.84780
C          0.77290       -2.03740       -1.17330
C          0.44220        0.11150       -2.50150
C          0.31410        0.67730       -3.55530
H          1.19130        1.35250        0.54090
H          0.01370        1.99710       -0.63550
H         -0.51820        1.56620        1.01370
H          2.74970       -1.05400       -1.55930
H          2.21740       -1.04100        0.19500
H          0.27550       -2.53490       -0.34900
H          0.77580       -2.57710       -2.11240
H          0.19700        1.16760       -4.48990
