13
gdb 16274	3.13766	2.15534	1.45442	4.2454	60.82	-0.2559	-0.0459	0.21	824.9705	0.094142	-398.57133	-398.56438	-398.563436	-398.602816	25.034
O         -0.22780        0.00950        0.15700
C         -0.00840        1.13480       -0.20670
C          1.27650        1.84380       -0.00170
C          1.32140        3.31110        0.34530
N          1.78030        2.94190       -0.97100
C          3.19130        2.44180       -0.78160
C          2.67870        1.29390        0.11500
O          3.15500        0.29140        0.54910
H         -0.76600        1.74770       -0.74600
H          0.36410        3.82550        0.35890
H          2.03110        3.64170        1.10150
H          3.59930        2.06410       -1.72220
H          3.87220        3.17940       -0.34840
