16
gdb 18949	7.05539	1.3524	1.32009	3.1445	70.04	-0.2419	-0.0224	0.2195	937.4309	0.130879	-346.532176	-346.525768	-346.524824	-346.562958	24.76
O         -0.03760       -0.11660       -0.29330
C          0.00200        1.05940       -0.02600
C          1.25130        1.88480       -0.00420
C          1.20170        3.30000       -0.64510
C          0.46230        3.94760        0.57940
C          1.50270        5.07790        0.70000
C          2.32660        3.83870        0.30200
C          1.44780        2.87950        1.17410
H         -0.93070        1.61450        0.22920
H          2.11670        1.26760       -0.26400
H          1.06190        3.55610       -1.69620
H         -0.61500        3.99700        0.73650
H          1.44030        5.88540       -0.03640
H          1.67550        5.48360        1.70190
H          3.39970        3.73900        0.13370
H          1.59310        2.64810        2.23020
