12
gdb 560	9.92569	2.31264	2.09564	1.1864	46.85	-0.2557	-0.0341	0.2215	583.4738	0.095867	-306.347185	-306.341242	-306.340298	-306.377564	19.531
O          0.02240       -0.09500       -0.14880
C          0.02870        1.09380        0.03630
C          1.25830        1.96090        0.03690
C          1.12770        3.26410       -0.79690
O          1.13540        4.08880        0.38150
C          1.34960        2.94840        1.23140
H         -0.91770        1.65430        0.22770
H          2.14140        1.35200       -0.15450
H          1.98210        3.46450       -1.45410
H          0.20010        3.37570       -1.37250
H          0.56870        2.85140        1.99630
H          2.32960        2.97010        1.72260
