16
gdb 16451	4.21179	1.93867	1.74318	0.9586	63.25	-0.2379	0.067	0.305	788.6932	0.130833	-383.667685	-383.661118	-383.660174	-383.697995	26.363
O         -0.06170        1.42850        0.06640
C         -0.01460        0.04730        0.04090
C         -0.27330       -0.77000       -1.18440
C         -1.18430       -0.94280        0.01640
C         -0.52790       -1.78090        1.13590
C          0.52440       -2.84850        0.76470
O          1.57570       -1.84740        0.69970
C          0.66530       -0.80880        1.13960
H          0.62180        1.76690       -0.52300
H         -0.73500       -0.20720       -1.99010
H          0.42000       -1.54020       -1.50520
H         -2.24670       -0.74960       -0.06550
H         -1.14270       -1.94860        2.01830
H          0.72470       -3.57410        1.56220
H          0.39430       -3.38200       -0.18390
H          1.01460       -0.25760        2.01620
