18
gdb 20864	6.49811	1.03678	0.96154	2.744	74.2	-0.2303	0.0269	0.2572	1244.4552	0.155913	-344.017194	-344.009184	-344.008239	-344.05066	28.954
C         -0.11780        1.57570       -0.03350
C         -0.06510        0.04660       -0.03400
C          0.79060       -0.51860       -1.18610
C          0.86600       -2.01300       -1.20230
C          1.81800       -2.89830       -0.73060
C          1.29540       -4.18030       -1.00320
N          0.10930       -4.11670       -1.60020
N         -0.12780       -2.79310       -1.70590
H          0.88430        2.00650        0.06980
H         -0.54700        1.95950       -0.96590
H         -0.72820        1.95100        0.79330
H          0.34030       -0.31710        0.91720
H         -1.08120       -0.36110       -0.10550
H          0.39270       -0.15390       -2.14300
H          1.80820       -0.12070       -1.10890
H          2.75540       -2.64510       -0.26170
H          1.73630       -5.14420       -0.79420
H         -0.98050       -2.48740       -2.14400
