16
gdb 1527	8.11134	1.31108	1.1531	2.3745	58.97	-0.2478	0.068	0.3158	1038.2987	0.135545	-362.962787	-362.954042	-362.953098	-362.996943	28.771
C          0.00890        1.50460       -0.13240
C          0.07730       -0.00270        0.02500
O          0.60890       -0.54060       -1.19660
C          0.73420       -1.89310       -1.22330
O          0.43340       -2.62840       -0.30790
N          1.24320       -2.28060       -2.42370
C          1.49080       -3.66770       -2.74860
H          1.00230        1.92400       -0.31610
H         -0.64050        1.78130       -0.96800
H         -0.39240        1.95570        0.78000
H          0.72360       -0.29560        0.85860
H         -0.91010       -0.43760        0.21020
H          1.44710       -1.55750       -3.09240
H          1.19760       -4.26300       -1.88300
H          0.90220       -3.99000       -3.61550
H          2.55100       -3.84930       -2.96030
