14
gdb 5038	3.56656	2.32415	1.41955	4.0599	67.36	-0.2262	-0.0563	0.1698	822.6726	0.109211	-378.777619	-378.770826	-378.769882	-378.808817	24.88
C         -0.01050        1.45840        0.00830
N          0.00640        0.00000       -0.02880
C         -0.10030       -0.69670       -1.19510
C         -0.08100       -2.05680       -1.19350
N          0.04480       -2.77240       -0.03550
C          0.14700       -2.11410        1.07970
C          0.13930       -0.65820        1.20880
O          0.23430       -0.02590        2.24870
H          0.91500        1.82840        0.45570
H         -0.11740        1.84200       -1.00660
H         -0.83930        1.80360        0.63100
H         -0.19910       -0.11060       -2.10130
H         -0.16540       -2.61460       -2.11740
H          0.24780       -2.66660        2.01090
