16
gdb 8869	3.33059	1.27226	1.08857	1.0082	61.84	-0.2511	-0.0988	0.1523	1099.5774	0.127143	-420.889506	-420.880229	-420.879285	-420.924227	31.542
C          0.14570        1.34280       -0.36900
C         -0.10590       -0.10260        0.11510
C          0.66670       -0.41040        1.40740
O          2.06560       -0.24450        1.24960
C         -1.58890       -0.32090        0.30690
O         -2.16000       -0.30480        1.37450
C         -2.44130       -0.57960       -0.94690
O         -1.98530       -0.70790       -2.05240
H          1.22340        1.50650       -0.43330
H         -0.30030        1.51890       -1.35040
H         -0.26760        2.06630        0.34140
H          0.22040       -0.78130       -0.68470
H          0.36280        0.28810        2.19180
H          0.41680       -1.42050        1.76270
H          2.38630       -0.94230        0.66910
H         -3.52520       -0.65570       -0.71650
