16
gdb 10165	2.64709	1.36047	0.93893	2.4192	63.35	-0.2576	-0.0506	0.2071	1197.5978	0.126301	-420.876647	-420.867301	-420.866357	-420.91201	30.537
C         -0.01590        1.44960       -0.18430
O         -0.03230        0.04630       -0.04410
C          0.51170       -0.62450       -1.15950
C          0.46550       -2.11240       -0.85090
C          0.89280       -2.98200       -2.02830
O          1.15610       -2.54770       -3.11860
C          1.29870       -2.49440        0.37320
O          1.32680       -3.60850        0.82630
H          1.00910        1.83480       -0.29830
H         -0.60520        1.77660       -1.05450
H         -0.45550        1.87230        0.72180
H         -0.05150       -0.40570       -2.07780
H          1.55240       -0.30640       -1.34110
H         -0.56440       -2.41280       -0.60780
H          0.94680       -4.06370       -1.79040
H          1.90140       -1.66810        0.80480
