18
gdb 15895	2.65142	1.92943	1.30675	2.1754	68.81	-0.2257	-0.0244	0.2013	989.0128	0.151583	-384.937529	-384.928784	-384.927839	-384.97102	31.219
C          0.03030        1.56100       -0.34120
O          0.59200        0.30890        0.01720
C          0.74950       -0.55740       -1.06140
C          1.34590       -1.96670       -0.74180
C          1.16040       -2.39160        0.71190
C          0.31170       -2.61120       -1.72180
C         -0.48000       -1.29350       -1.64770
O         -1.62730       -0.99400       -1.81450
H          0.66730        2.08800       -1.06870
H         -0.97250        1.44420       -0.76780
H         -0.02980        2.15530        0.57320
H          1.30630       -0.07890       -1.88800
H          2.38900       -2.07800       -1.04440
H          0.11360       -2.30580        1.02180
H          1.47050       -3.43240        0.84820
H          1.75140       -1.76150        1.38140
H          0.70760       -2.79470       -2.72550
H         -0.21650       -3.50530       -1.38180
