14
gdb 9106	6.73801	0.89766	0.79603	2.0718	74.11	-0.2538	-0.066	0.1878	1357.9222	0.106944	-374.91787	-374.909415	-374.90847	-374.951321	28.957
C          0.12930        1.73310        0.75350
N         -0.00490        0.33380        1.10290
C          0.13100       -0.51630        0.17710
N          0.01140       -1.87190        0.46170
C          0.14040       -2.87670       -0.46810
N          0.38620       -2.65700       -1.70200
C         -0.03060       -4.20740        0.09300
N         -0.15950       -5.28290        0.49730
H          0.93430        2.18120        1.34700
H          0.34110        1.90810       -0.31250
H         -0.79200        2.26450        1.01770
H          0.34190       -0.30820       -0.87470
H         -0.18360       -2.10940        1.42310
H          0.44470       -3.52500       -2.22760
