17
gdb 9879	5.00765	1.00464	0.93437	4.299	68.89	-0.2795	0.0347	0.3142	1237.4553	0.140727	-363.865093	-363.856452	-363.855507	-363.899001	30.591
C          0.04870        1.59750       -0.33640
C         -0.08550        0.10200       -0.14480
C         -1.43650       -0.41880        0.31730
C         -1.70470       -0.06940        1.79810
C         -2.97150       -0.61690        2.27490
N         -3.97870       -1.05570        2.63330
C          0.81400       -0.80560       -0.87350
O          1.02670       -0.52740        0.51330
H          1.06780        1.85260       -0.63530
H         -0.64200        1.95270       -1.10860
H         -0.17340        2.14150        0.58770
H         -2.23280       -0.00590       -0.31120
H         -1.46620       -1.50600        0.20620
H         -0.88960       -0.46660        2.41230
H         -1.72130        1.01520        1.94900
H          0.49190       -1.82030       -1.10360
H          1.56110       -0.39360       -1.55090
