19
gdb 17447	3.31675	2.1883	1.68815	1.6089	75.13	-0.2213	0.089	0.3102	853.7295	0.165531	-327.868929	-327.861374	-327.86043	-327.900082	29.938
C          0.79060        2.23370       -1.96160
C          0.42050        0.79960       -1.65880
C          1.18630       -0.39400       -2.08470
C          2.67630       -0.20970       -2.00270
C          3.18690       -1.07130       -0.86600
C          2.47370        0.20940       -0.54620
C          3.05280        1.28360        0.32670
N          1.01040       -0.04880       -0.59280
H          1.86600        2.37780       -2.07400
H          0.31290        2.53920       -2.89910
H          0.43000        2.90550       -1.17500
H         -0.65680        0.63550       -1.66510
H          0.69690       -1.26810       -2.50630
H          3.32590        0.18040       -2.77870
H          2.71190       -2.02500       -0.65080
H          4.26250       -1.05350       -0.71430
H          4.13550        1.35500        0.18430
H          2.61780        2.26640        0.12630
H          2.86950        1.04690        1.38110
