17
gdb 18905	3.38287	2.73904	2.22685	1.7552	69.99	-0.225	0.0865	0.3116	712.2435	0.143866	-326.650233	-326.64418	-326.643235	-326.679917	25.089
C         -0.12120        1.52880        0.01570
C         -0.01540        0.03950        0.00710
C          0.71990       -0.86830       -1.04380
C          1.82620       -1.18010       -0.00480
C          0.72550       -0.88010        1.04370
C         -0.44470       -1.83480        0.74250
C         -0.44860       -1.82650       -0.74710
N         -1.28630       -0.83160        0.00550
H          0.87170        1.99200        0.01270
H         -0.66820        1.88230       -0.86520
H         -0.65840        1.87300        0.90630
H          0.92620       -0.57810       -2.07240
H          2.28040       -2.17530       -0.01170
H          2.60810       -0.41360       -0.00260
H          0.93740       -0.60150        2.07440
H         -0.88650       -2.60540        1.36230
H         -0.89370       -2.59010       -1.37310
