13
gdb 14566	8.02637	0.69781	0.67579	3.5743	71.62	-0.2709	0.0118	0.2827	1568.6047	0.093128	-324.270309	-324.261609	-324.260664	-324.306019	29.336
C         -0.06160       -1.19210        0.40640
C         -0.02150       -0.02760        0.11880
C          0.01350        1.39220       -0.23500
C          1.36320        1.96020       -0.23170
C          2.46740        2.43220       -0.22770
C          3.81500        2.99590       -0.22360
C          3.88940        4.30530        0.43870
N          3.96080        5.33530        0.95520
H         -0.09530       -2.22210        0.66270
H         -0.44000        1.53390       -1.22540
H         -0.61690        1.95920        0.46360
H          4.51190        2.31580        0.28270
H          4.18920        3.10960       -1.24920
