18
gdb 17733	5.93576	1.6732	1.59271	0.0983	76.99	-0.2555	0.1057	0.3613	865.3214	0.154941	-310.570728	-310.564491	-310.563547	-310.600711	26.054
C          0.01690        1.56240        0.00640
C          1.34220        0.80530       -0.00990
C          0.04370        0.07070        0.00240
C         -0.53860       -0.96920        0.95440
C         -1.77840       -1.21580        0.01890
C         -1.56280       -2.74200        0.01270
C         -0.13880       -2.15230       -0.00130
C         -0.55920       -0.96440       -0.94200
H         -0.25920        2.07780        0.92140
H         -0.27920        2.08230       -0.89970
H          1.92340        0.82410       -0.92690
H          1.94330        0.81960        0.89420
H         -0.53800       -0.99190        2.04570
H         -2.70860       -0.64570        0.03050
H         -1.86270       -3.28640        0.91410
H         -1.88220       -3.28180       -0.88480
H          0.82480       -2.66400       -0.01310
H         -0.58240       -0.98140       -2.03310
