12
gdb 339	5.40263	2.49803	1.88284	3.0426	48.36	-0.2559	-0.0573	0.1986	637.0667	0.093292	-306.383308	-306.376314	-306.37537	-306.414827	22.644
C         -0.01880        1.48420        0.00220
C          0.01620       -0.06280       -0.01980
C          0.76430       -0.55330        1.21090
O          1.80950       -1.14530        1.18000
C         -1.41280       -0.58520       -0.01560
O         -1.91440       -1.20010       -0.91780
H          0.99740        1.88680       -0.00470
H         -0.54840        1.86430       -0.87520
H         -0.52800        1.85890        0.89670
H          0.52420       -0.43480       -0.91190
H          0.27390       -0.29670        2.17910
H         -1.99250       -0.32970        0.90220
