19
gdb 7769	3.64928	1.66629	1.22332	2.2128	72.81	-0.2443	0.0274	0.2717	1024.0022	0.166367	-365.092907	-365.084946	-365.084002	-365.124992	30.218
C          0.00110        1.54370        0.08440
C         -0.00330        0.02960       -0.03890
C          0.75030       -0.50620       -1.25240
C          0.79850       -2.03940       -1.20100
C          1.74560       -2.62930       -2.24710
N          1.19230       -2.52760        0.12460
C          1.07860       -1.74970        1.11410
O          0.58560       -0.48970        1.17460
H          1.02660        1.92390        0.11640
H         -0.51060        1.99340       -0.77190
H         -0.51100        1.85620        0.99850
H         -1.04030       -0.33480       -0.06910
H          0.26820       -0.15580       -2.17140
H          1.77230       -0.10550       -1.24510
H         -0.21040       -2.42920       -1.40300
H          2.76890       -2.27710       -2.07990
H          1.75040       -3.72000       -2.17800
H          1.44170       -2.34090       -3.25890
H          1.40560       -2.06090        2.10540
