15
gdb 18669	3.29735	2.36303	1.54111	3.809	62.55	-0.267	-0.002	0.265	806.1745	0.120868	-399.790756	-399.78425	-399.783306	-399.821564	24.802
N         -0.12240        1.27710        0.08520
C         -0.02280        0.02210       -0.04040
O          1.17800       -0.62570       -0.07580
C          1.25140       -1.80540       -0.89260
C          0.25310       -2.88150       -0.47340
C         -1.13030       -2.28370       -0.28160
O         -1.38050       -1.74830        1.01390
C         -1.25140       -0.82630       -0.07960
H          0.80830        1.70090        0.10620
H          1.08340       -1.51900       -1.93980
H          2.28190       -2.15380       -0.79840
H          0.23200       -3.66280       -1.24030
H          0.56220       -3.34750        0.46750
H         -1.97520       -2.81590       -0.71650
H         -2.15760       -0.28890       -0.34240
