11
gdb 682	7.87898	3.80242	3.00635	3.8131	46.41	-0.25	-0.0123	0.2378	448.6348	0.085415	-285.267165	-285.2623	-285.261356	-285.29523	17.971
O          0.04200        0.01860        0.01610
C         -0.00800        1.20590        0.05420
C         -1.12590        2.26390        0.13360
C          0.01500        3.27580        0.05390
C          1.00650        3.04040        1.10880
N          1.07030        2.17250       -0.11130
H         -1.76110        2.22900       -0.75510
H         -1.75520        2.27280        1.02710
H          0.04250        4.13780       -0.60050
H          1.86250        3.70280        1.17960
H          0.70300        2.58830        2.05030
