22
gdb 12700	3.2689	1.66383	1.3178	1.3701	77.49	-0.2588	0.0644	0.3232	1041.7013	0.200734	-350.22897	-350.219952	-350.219008	-350.26223	34.179
C         -0.76590        1.28620        0.01140
C          0.07680        0.01190        0.00530
C          1.08080       -0.08710       -1.17270
C          2.28470       -0.91320       -0.64200
C          1.92050       -1.31100        0.81030
C          3.11850       -1.54160        1.72860
C          0.95970       -0.19730        1.25360
O          1.74430        0.95450        1.55610
H         -0.13010        2.17750        0.06070
H         -1.36220        1.36780       -0.90310
H         -1.46120        1.31110        0.85900
H         -0.60320       -0.84980       -0.03790
H          0.61510       -0.54030       -2.05280
H          1.40630        0.91450       -1.47040
H          2.49590       -1.79310       -1.25670
H          3.19290       -0.30310       -0.63870
H          1.32100       -2.23080        0.77620
H          3.70330       -0.62460        1.83500
H          2.80150       -1.85640        2.72880
H          3.77240       -2.32260        1.32590
H          0.36530       -0.49250        2.13220
H          1.14850        1.65680        1.83200
