21
gdb 4013	3.23448	1.05857	0.87431	0.6297	78.63	-0.2383	0.0158	0.2541	1400.8011	0.186636	-366.2381	-366.227998	-366.227054	-366.273475	36.004
C         -0.09140        1.57070        0.02120
C         -0.10460        0.04070       -0.02470
C          0.72450       -0.52130       -1.19520
C          0.76120       -2.02810       -1.23270
C          1.59350       -2.78110       -0.22240
C          2.95270       -3.21220       -0.80590
N          0.07450       -2.58100       -2.15970
O          0.16260       -3.98750       -2.11560
H          0.92730        1.95500        0.14490
H         -0.49510        1.99770       -0.90350
H         -0.69330        1.94840        0.85350
H          0.27420       -0.35660        0.92510
H         -1.13510       -0.32150       -0.12010
H          0.31120       -0.15970       -2.14170
H          1.75320       -0.14050       -1.12020
H          1.75450       -2.14950        0.65700
H          1.04420       -3.66940        0.10180
H          3.54480       -3.73980       -0.05200
H          2.80490       -3.87900       -1.65820
H          3.53310       -2.34750       -1.14390
H         -0.40670       -4.24440       -2.84800
