14
gdb 8251	6.00916	1.11202	0.99151	3.1817	62.95	-0.2651	0.0149	0.28	1102.1941	0.10753	-378.759702	-378.752171	-378.751227	-378.792333	26.758
O          0.19590       -0.01970       -0.05310
C          0.04620        1.16760        0.00470
C         -1.15660        2.14330        0.09000
C         -0.09090        3.27680        0.02750
C         -0.02200        4.21220        1.24520
C          1.18660        5.03370        1.22640
N          2.15590        5.66100        1.17910
N          0.92840        2.22740        0.00100
H         -1.83590        2.09060       -0.76180
H         -1.72580        2.08320        1.01990
H         -0.12690        3.87050       -0.89180
H         -0.89980        4.86820        1.25850
H         -0.03490        3.62070        2.16730
H          1.92600        2.27160       -0.15130
