12
gdb 3305	6.16472	2.18423	1.93699	5.0994	54.15	-0.2789	0.0204	0.2993	652.1015	0.090689	-323.344889	-323.339112	-323.338168	-323.374574	21.132
N          0.02610       -1.18430       -0.12530
C          0.01640       -0.03110       -0.04800
C         -0.00170        1.41980        0.04740
C         -0.24290        2.07810        1.46470
C          1.11260        2.77840        1.30920
O          2.09730        1.75090        1.15710
C          1.36580        2.14590        0.00530
H         -0.69540        1.82730       -0.69250
H         -1.10150        2.75140        1.45430
H         -0.31320        1.39000        2.30800
H          1.44120        3.72990        1.70780
H          1.91920        2.46550       -0.86910
