20
gdb 7828	3.01672	1.82946	1.22791	0.32	71.88	-0.231	0.0932	0.3242	1032.9658	0.17724	-386.151577	-386.143361	-386.142417	-386.183738	31.37
C         -0.01090        1.51060        0.06390
C          0.03160       -0.00740       -0.00040
C          0.73350       -0.53170       -1.25410
O          0.83530       -1.94500       -1.22830
C          1.51990       -2.38740       -0.06900
C          0.82920       -1.88980        1.20170
C          1.58480       -2.25540        2.46880
O          0.72060       -0.46960        1.15820
H          1.00200        1.92460        0.04720
H         -0.56940        1.91840       -0.78420
H         -0.49610        1.83540        0.98780
H         -0.99420       -0.41530        0.00760
H          0.16810       -0.27440       -2.15500
H          1.73600       -0.07530       -1.32370
H          1.52680       -3.48110       -0.10720
H          2.56300       -2.02690       -0.07750
H         -0.18510       -2.32490        1.22710
H          2.59530       -1.83570        2.44850
H          1.06780       -1.85540        3.34480
H          1.65950       -3.34200        2.57510
