13
gdb 11165	4.13255	1.63407	1.43368	1.8403	60.53	-0.2735	0.0095	0.283	868.2547	0.095135	-398.56678	-398.55974	-398.558796	-398.598435	25.679
N         -0.04020        1.28600       -0.00800
C         -0.02980        0.02920       -0.04310
C         -1.23300       -0.88200       -0.15990
O         -0.66760       -2.14770       -0.48260
C          0.63460       -2.14010        0.05110
O          1.07770       -0.77590        0.00810
C          0.68790       -2.65000        1.42740
C          0.72550       -3.08590        2.54560
H          0.90350        1.66100        0.09530
H         -1.78650       -0.91270        0.78840
H         -1.90650       -0.57750       -0.96160
H          1.27970       -2.72710       -0.60860
H          0.76110       -3.47070        3.53560
