21
gdb 9370	4.51929	0.89853	0.7673	0.7639	79.11	-0.2406	0.0377	0.2783	1553.2041	0.185884	-366.279245	-366.268677	-366.267733	-366.315975	35.794
C         -0.11160        1.47780       -0.03110
C          0.01860       -0.04580        0.04320
C          0.75120       -0.49400        1.29860
O          0.81990       -1.92420        1.27350
C          1.44050       -2.52760        2.31410
C          1.42360       -4.02980        2.13010
N          1.93240       -1.84220        3.25850
C          2.59520       -2.49080        4.36880
H          0.87090        1.96240       -0.03930
H         -0.64020        1.78310       -0.93870
H         -0.66730        1.87310        0.82640
H         -0.97360       -0.51170        0.02570
H          0.55550       -0.42300       -0.83500
H          1.76590       -0.08190        1.34710
H          0.23390       -0.17060        2.20950
H          2.44100       -4.43010        2.09570
H          0.90540       -4.51870        2.96020
H          0.91460       -4.28240        1.20020
H          2.62320       -3.58850        4.32670
H          3.62930       -2.13130        4.43750
H          2.10290       -2.20350        5.30590
