13
gdb 3998	3.70487	1.35123	0.9961	0.6382	70.97	-0.2459	-0.0376	0.2084	1091.3741	0.091451	-361.34644	-361.337818	-361.336874	-361.379798	30.819
O         -0.10170        1.46310        0.01090
N          0.07110        0.08900        0.00180
C         -1.04310       -0.54800        0.00900
C         -1.01090       -2.06870        0.00060
C          0.31560       -2.66810       -0.01530
C          1.38790       -3.20750       -0.02840
C         -2.32980        0.06230        0.02460
C         -3.44510        0.51520        0.03780
H          0.80720        1.78450        0.00390
H         -1.57090       -2.42330        0.87650
H         -1.58750       -2.41390       -0.86840
H          2.34320       -3.67080       -0.03990
H         -4.41920        0.93890        0.04940
