19
gdb 17798	5.57569	1.26712	1.10334	2.5256	72.11	-0.2199	0.0719	0.2919	1094.0108	0.166435	-365.006664	-364.998928	-364.997984	-365.039851	27.907
C         -0.05610        1.58320        0.03840
C          1.48800        1.48880        0.01470
N          1.37530        0.07620        0.44320
C         -0.03540        0.03670       -0.00400
C          2.29660       -0.88330       -0.10270
C          3.71170       -0.87450        0.51690
O          3.56960       -2.23280        0.97910
C          2.21210       -2.30380        0.49850
H         -0.43870        1.97240        0.98340
H         -0.53830        2.09970       -0.79150
H          1.88980        1.59670       -1.00700
H          2.06250        2.13220        0.68860
H         -0.71420       -0.51440        0.65460
H         -0.14930       -0.34690       -1.03200
H          2.30420       -0.87700       -1.20800
H          4.54950       -0.76490       -0.18180
H          3.82830       -0.16490        1.34550
H          1.48720       -2.39640        1.31670
H          2.07150       -3.12680       -0.21220
