14
gdb 3678	3.76852	3.27179	1.7753	1.7753	59.4	-0.1975	0.0387	0.2361	688.8492	0.115504	-320.783029	-320.776103	-320.775159	-320.813624	25.333
C         -0.05410        1.55510       -0.00160
C         -0.01460        0.05980       -0.01440
C         -0.00840       -0.80000       -1.09330
N          0.01160       -2.05940       -0.60040
N          0.02910       -2.09410        0.75550
C          0.00620       -0.81300        1.10870
N         -0.06540       -0.43340        2.45220
H          0.86930        1.99310        0.40050
H         -0.18740        1.95720       -1.00980
H         -0.87890        1.92790        0.61720
H         -0.02330       -0.60320       -2.15450
H          0.01170       -2.92550       -1.10820
H          0.13500       -1.21540        3.06350
H          0.54090        0.34540        2.67620
