14
gdb 5513	3.46591	1.98415	1.27194	6.359	68.72	-0.2412	-0.0571	0.184	897.8726	0.108213	-378.764061	-378.756831	-378.755887	-378.79589	25.435
C         -0.02790        1.45050        0.03560
N         -0.00850       -0.00550        0.01660
C         -0.02940       -0.77880       -1.10670
C          0.00150       -2.08880       -0.67080
N          0.04020       -2.13710        0.68340
C          0.03380       -0.87340        1.09060
C          0.06680       -0.41130        2.47910
O          0.10410       -1.13240        3.44750
H          0.87370        1.84850        0.50820
H         -0.06900        1.81120       -0.99280
H         -0.90490        1.82370        0.57050
H         -0.06350       -0.34090       -2.09150
H         -0.00280       -2.98480       -1.27320
H          0.05480        0.69640        2.59170
