19
gdb 19285	3.14943	1.77711	1.38509	1.8303	70.67	-0.2295	0.0625	0.2921	966.4012	0.165319	-365.013508	-365.005262	-365.004317	-365.046194	30.897
C          0.07060        1.65160        0.08040
C          0.04540        0.11940        0.09130
C          0.61130       -0.48050       -1.18610
C          0.44830       -2.01040       -1.47500
O         -0.36250       -2.79310       -0.62200
C         -0.25020       -1.60690       -2.76070
C         -1.40190       -0.73200       -2.47520
N         -0.06150       -0.11800       -2.49460
H          1.09360        2.03010       -0.02150
H         -0.51000        2.04530       -0.75900
H         -0.34770        2.05970        1.00540
H          0.64140       -0.25690        0.93420
H         -0.97320       -0.24150        0.26530
H          1.66110       -0.18560       -1.29030
H          1.41460       -2.49730       -1.65480
H          0.15610       -3.03040        0.15340
H         -0.06770       -2.03980       -3.73830
H         -2.00740       -0.42330       -3.32160
H         -1.94760       -0.84480       -1.54440
