14
gdb 14090	3.65582	1.74842	1.44549	1.3444	60.06	-0.2492	-0.0376	0.2116	863.2567	0.105096	-419.643973	-419.636634	-419.635689	-419.675664	27.069
O          0.06170        1.29600       -0.04930
C          0.09340       -0.07970        0.11670
C         -0.49350       -0.70950        1.35470
C         -1.25230       -0.77810        0.06000
O         -2.40120        0.04060       -0.20770
C         -2.92620       -0.91570       -1.17020
C         -1.74870       -1.85690       -0.84570
O         -1.39570       -2.94990       -1.17160
H         -0.84370        1.52770       -0.30500
H          0.94460       -0.56050       -0.35780
H         -0.06550       -1.63630        1.72310
H         -0.90310       -0.04020        2.10420
H         -3.91900       -1.28030       -0.88870
H         -2.94170       -0.51960       -2.19110
