14
gdb 19542	4.61654	1.78432	1.68428	4.7064	67.02	-0.2654	-0.0003	0.2652	793.0521	0.109373	-341.52845	-341.522438	-341.521494	-341.558558	23.389
N         -0.12050       -1.14370       -0.10880
C         -0.07550        0.01070       -0.03280
C          0.02820        1.41880        0.07840
C         -0.70540        2.45360        0.86490
C          0.59650        3.13570        1.28230
C          1.22360        2.46150        0.03260
C          0.43290        3.10500       -1.11650
N         -0.82220        2.43340       -0.62830
H         -1.62990        2.33790        1.41420
H          0.62550        4.22860        1.33050
H          0.97240        2.70780        2.21410
H          2.28580        2.23850       -0.02330
H          0.38280        4.19820       -1.15750
H          0.67350        2.69950       -2.10100
