12
gdb 21457	6.30241	1.48057	1.19892	4.1285	59.75	-0.2352	-0.0248	0.2104	913.683	0.086606	-406.997871	-406.991156	-406.990212	-407.02994	23.399
N          0.26360        1.29990        0.00580
C          0.03560        0.05350        0.00200
N         -1.23010       -0.50820        0.01160
C         -2.46160        0.10660        0.02710
N         -3.57400       -0.63040        0.03740
N         -4.49400        0.33020        0.04940
N         -4.01640        1.55850        0.04750
N         -2.71010        1.44240        0.03400
H          1.26730        1.46880       -0.00330
H          0.79340       -0.73960       -0.00930
H         -1.27990       -1.51390        0.00840
H         -5.48350        0.13470        0.05930
