17
gdb 1861	4.84978	2.05094	1.68957	1.1519	66.41	-0.2277	0.0351	0.2628	793.8003	0.148494	-309.736797	-309.729561	-309.728617	-309.767827	27.213
C          0.26090        1.41280        0.09450
C         -0.00850       -0.05600        0.01160
C          0.02380       -0.82880       -1.07590
C         -0.33820       -2.26140       -0.77760
C         -0.29780       -2.32840        0.77350
O          0.95370       -2.81400        1.25050
C         -0.40100       -0.85990        1.23340
H          1.09140        1.62390        0.78020
H          0.51050        1.83460       -0.88300
H         -0.60930        1.95520        0.48670
H          0.25880       -0.47830       -2.07570
H         -1.33640       -2.51350       -1.16380
H          0.35710       -2.98830       -1.21810
H         -1.11610       -2.94300        1.17420
H          1.07780       -3.70200        0.90070
H          0.25750       -0.69280        2.09310
H         -1.41990       -0.60760        1.55840
