15
gdb 8263	6.594	0.93076	0.91201	3.2421	73.05	-0.2591	0.0163	0.2753	1292.5852	0.117686	-362.63783	-362.629532	-362.628588	-362.672688	28.531
C          0.31450        1.62180       -0.24280
C          0.10510        0.18710       -0.12690
C         -0.07570       -0.99960       -0.03160
C         -0.27530       -2.42620        0.08320
C          0.19100       -3.13170        1.38660
C         -1.27720       -3.45320        1.55440
N         -1.95010       -4.08530        2.40090
O         -1.67010       -2.79860        0.40430
H          1.05250        1.97580        0.48510
H          0.67090        1.89270       -1.24230
H         -0.61840        2.16650       -0.06210
H          0.02420       -2.94540       -0.83210
H          0.84460       -3.99420        1.25150
H          0.60190       -2.46640        2.14600
H         -2.94320       -4.08550        2.16180
