14
gdb 7711	3.48671	2.03645	1.34282	4.1353	60.17	-0.271	-0.0033	0.2677	861.909	0.109555	-415.92038	-415.913512	-415.912568	-415.951879	25.252
N         -0.07340        1.30290        0.23500
C         -0.05160        0.07140       -0.02900
C         -1.28060       -0.79100       -0.04310
C         -1.22520       -1.74850       -1.23100
N          0.05750       -2.42990       -1.19660
C          1.23340       -1.86150       -0.81130
O          2.31250       -2.38070       -0.89140
O          1.14110       -0.57790       -0.29490
H          0.87160        1.69170        0.20850
H         -1.31250       -1.37370        0.88540
H         -2.15780       -0.14550       -0.07610
H         -2.02090       -2.49480       -1.16170
H         -1.36570       -1.19880       -2.17260
H          0.16990       -3.31760       -1.65860
