19
gdb 18471	3.33753	1.55221	1.33519	0.3256	71.12	-0.2263	0.0697	0.296	1001.3188	0.165593	-365.003019	-364.994823	-364.993879	-365.035483	30.913
C         -0.23480        1.62360        0.04790
C         -0.03220        0.11760        0.02370
C          0.93310       -0.58910       -0.96900
C          1.52810       -1.28610        0.25400
C          2.07450       -0.32880        1.23170
C          2.84620        0.93950        0.91370
O          4.24560        0.69410        0.93650
N          0.60870       -0.54300        1.22690
H          0.69870        2.18980        0.03530
H         -0.82360        1.93480       -0.82210
H         -0.79080        1.90890        0.94740
H         -1.01850       -0.35130       -0.05060
H          0.42450       -1.26220       -1.66090
H          1.62140        0.03920       -1.54320
H          1.68800       -2.35670        0.33600
H          2.47540       -0.80530        2.12850
H          2.63520        1.30560       -0.09220
H          2.56610        1.73600        1.62060
H          4.49010        0.45570        1.83650
