17
gdb 8861	3.64723	1.43775	1.12988	3.2969	73.09	-0.237	-0.039	0.1981	1066.9967	0.141739	-360.0575	-360.04834	-360.047396	-360.091647	31.759
C         -0.03920        1.59850       -0.05210
C          0.04190        0.06890       -0.02700
N          0.69150       -0.49870       -1.20780
C          2.13820       -0.60780       -1.19120
C         -0.06910       -0.71100       -2.32000
N         -1.32580       -0.44090       -2.36230
C          0.61450       -1.28910       -3.46950
N          1.07970       -1.74380       -4.42620
H          0.95390        2.05300       -0.12660
H         -0.64240        1.93030       -0.90010
H         -0.50730        1.96300        0.86740
H          0.60790       -0.27270        0.84650
H         -0.96350       -0.35370        0.02970
H          2.49630       -1.07830       -2.10730
H          2.61600        0.37670       -1.10320
H          2.45880       -1.22040       -0.34090
H         -1.72800       -0.71790       -3.25340
