17
gdb 1671	4.40787	1.6484	1.41801	1.3506	60.59	-0.241	-0.0106	0.2304	904.0776	0.145414	-346.874234	-346.865253	-346.864308	-346.90804	30.722
C          0.06050        1.49700        0.13490
C         -0.03530       -0.03520       -0.02220
C         -1.49100       -0.50210       -0.02300
O         -2.04950       -0.16870        1.24090
C          0.67050       -0.47450       -1.30290
C          2.18110       -0.61220       -1.23930
O          0.05360       -0.70180       -2.32040
H          1.09590        1.83430        0.23640
H         -0.37910        1.99950       -0.73330
H         -0.49220        1.80170        1.02560
H          0.47340       -0.49640        0.83450
H         -2.02810       -0.01560       -0.84830
H         -1.53110       -1.58650       -0.20370
H         -2.98770       -0.37630        1.21670
H          2.64380        0.25890       -0.76490
H          2.43770       -1.48180       -0.62200
H          2.58550       -0.75330       -2.24230
