20
gdb 6521	2.67319	1.93027	1.38406	2.718	76.61	-0.2452	-0.0217	0.2234	986.1441	0.174021	-349.017117	-349.007684	-349.00674	-349.050498	34.787
C         -0.08540        1.46380       -0.05440
C          0.04020       -0.04940        0.00920
C         -1.17050       -0.75840       -0.57220
C          1.39240       -0.66670       -0.16160
C          0.78240       -0.66490        1.23330
C          1.34700        0.22160        2.33180
C          0.30530       -1.97910        1.74640
O          0.10420       -2.97540        1.09020
H          0.82310        1.98320        0.25600
H         -0.29770        1.76720       -1.08600
H         -0.91300        1.82280        0.56800
H         -1.28700       -0.47610       -1.62500
H         -1.07790       -1.84270       -0.51840
H         -2.08810       -0.46240       -0.05040
H          1.45240       -1.63730       -0.64330
H          2.24620       -0.01550       -0.32160
H          1.78780        1.13830        1.93870
H          0.57450        0.50800        3.05490
H          2.13550       -0.30390        2.88230
H          0.14240       -1.99530        2.84900
