20
gdb 19718	3.22037	2.34841	2.33503	0.1709	76.14	-0.2535	0.0856	0.3391	761.8176	0.182205	-311.867506	-311.861703	-311.860759	-311.896837	25.989
C         -0.01110        1.51600        0.16760
C          1.30760        0.80230       -0.00120
C          0.00640        0.01570        0.00790
C         -0.03930       -0.63880       -1.39220
C         -0.27790        0.41250       -2.50210
C          1.06250        1.22270       -2.51150
C          1.89380        0.52980       -1.40580
C          1.46610       -0.94830       -1.60630
H         -0.22830        1.88710        1.16500
H         -0.40210        2.15380       -0.61540
H          1.99140        0.77800        0.84050
H         -0.28120       -0.59580        0.85650
H         -0.72040       -1.49020       -1.44290
H         -0.44150       -0.08700       -3.46170
H         -1.15520        1.03550       -2.31040
H          1.57100        1.12940       -3.47590
H          0.92070        2.29030       -2.32500
H          2.96370        0.73690       -1.46880
H          1.87510       -1.61600       -0.84260
H          1.70140       -1.34900       -2.59970
