14
gdb 2592	3.08314	2.77037	1.73427	6.0077	58.21	-0.2576	0.0258	0.2834	738.3162	0.114381	-320.728167	-320.720932	-320.719988	-320.759351	25.927
N          0.19680        1.44450       -0.11570
C         -0.07260        0.02890        0.09580
C          0.77810       -0.51690        1.23230
C          1.15690       -1.96140        1.22940
N          2.17280       -0.94030        0.96390
C          0.59100        0.14160        2.51140
N          0.40680        0.63240        3.54110
H          1.12740        1.58830       -0.49380
H         -0.46190        1.84010       -0.77670
H         -1.13030       -0.07730        0.36250
H          0.10260       -0.61950       -0.78230
H          1.26850       -2.48280        2.17430
H          0.78160       -2.56650        0.40800
H          2.35240       -0.87460       -0.03630
