16
gdb 18458	4.24865	1.43126	1.35435	4.1541	64.7	-0.2762	0.0008	0.277	968.8253	0.130091	-383.740316	-383.732898	-383.731954	-383.772473	27.36
C          0.17330        1.41390        0.17130
C         -0.20080       -0.04360       -0.12320
C          0.58670       -0.60780       -1.28730
C          1.92750       -1.23810       -1.18000
O          2.05370       -1.94540        0.08440
C          1.05370       -2.83440       -0.30930
O          0.69940       -3.81260        0.26120
C          0.76400       -2.11020       -1.59660
H          1.22990        1.50030        0.44400
H         -0.00150        2.05600       -0.69910
H         -0.42110        1.80840        1.00050
H         -0.02950       -0.65400        0.76810
H         -1.27000       -0.11660       -0.35410
H          0.46840       -0.05100       -2.21740
H          2.84630       -0.98530       -1.69000
H          0.49380       -2.55890       -2.54120
