18
gdb 13637	4.01322	1.2393	1.04926	3.9446	64.05	-0.2516	0.0623	0.3138	1126.7942	0.152808	-422.048222	-422.039459	-422.038515	-422.081534	32.582
O          0.10290        1.42640        0.00320
C          0.09490        0.01740        0.08640
C         -1.32840       -0.52820        0.01310
O         -1.85690       -0.03750       -1.21970
C         -1.38080       -2.04290        0.07180
C         -1.87100       -2.73050        1.33410
C         -2.72880       -2.69890        0.09690
O         -3.82400       -1.82250        0.02100
H         -0.48990        1.63830       -0.72900
H          0.68980       -0.43840       -0.72330
H          0.55440       -0.26130        1.04030
H         -1.90170       -0.10830        0.85120
H         -2.79400       -0.26560       -1.22160
H         -0.61430       -2.54850       -0.50890
H         -1.42430       -3.67260        1.63220
H         -2.16600       -2.08630        2.15650
H         -2.85700       -3.62590       -0.45990
H         -4.53070       -2.15670        0.58250
