13
gdb 3590	4.92884	3.38789	2.6361	3.2259	51.8	-0.2621	0.0581	0.3201	542.4604	0.102953	-344.412416	-344.407377	-344.406433	-344.440964	20.005
C         -0.00920        1.51580        0.09570
C          1.43230        1.98760       -0.08990
O          2.36470        1.48370        0.86680
C          2.29340        0.83060       -0.40040
C          1.42090       -0.41440       -0.40110
O          0.83060       -0.70520        0.86550
C          0.03940        0.00010       -0.09110
H         -0.41190        1.79750        1.07350
H         -0.64680        1.96320       -0.67530
H          1.63340        2.99630       -0.44460
H          3.18360        0.88000       -1.02080
H          1.67850       -1.26750       -1.02210
H         -0.84000       -0.53290       -0.44670
