17
gdb 9171	8.37198	0.82763	0.76377	0.5444	70.83	-0.2609	-0.0165	0.2444	1500.1457	0.139234	-401.03967	-401.030229	-401.029285	-401.074853	31.681
C         -0.14870        1.45100        0.13070
C          0.15710       -0.03600       -0.02750
C          0.73650       -0.37550       -1.37980
O          0.95620        0.39460       -2.27440
O          0.98620       -1.72520       -1.45130
C          1.51880       -2.22360       -2.61620
N          1.74980       -3.45360       -2.68810
C          2.31130       -3.94860       -3.93020
H          0.75530        2.05260        0.00780
H         -0.86950        1.78520       -0.61970
H         -0.56430        1.64970        1.12200
H          0.86620       -0.38850        0.73120
H         -0.73930       -0.65260        0.10970
H          1.68950       -1.46430       -3.38240
H          3.26670       -4.44220       -3.72190
H          1.64410       -4.70990       -4.34870
H          2.47670       -3.17020       -4.69080
