12
gdb 5671	5.43705	2.28215	1.60744	3.2796	60.52	-0.2049	0.0111	0.2159	715.4535	0.087395	-377.550678	-377.54513	-377.544186	-377.58011	21.673
N         -0.05690        1.33780        0.01020
C          1.25800        1.82130        0.00020
C          2.15220        0.77330       -0.01450
C          1.35690       -0.41280       -0.01330
C          0.04860       -0.01230        0.00170
O         -0.78670       -1.07070        0.00400
C          0.12130       -2.13010       -0.01010
N          1.37130       -1.80890       -0.02120
H         -0.89120        1.89620        0.02120
H          1.43170        2.88480        0.00440
H          3.22620        0.86690       -0.02460
H         -0.32590       -3.11080       -0.01100
