22
gdb 11619	4.92466	0.92832	0.87588	0.8981	79.41	-0.2429	0.0882	0.3312	1429.2902	0.198296	-350.189808	-350.180181	-350.179237	-350.224782	35.076
C          0.34430        1.37520        0.33710
C          0.00790       -0.06580       -0.06550
C         -1.49600       -0.25230       -0.30050
C          0.79210       -0.49160       -1.30580
O          2.18010       -0.43900       -1.01640
C          2.98510       -0.77760       -2.09920
C          3.33920        0.27930       -3.11580
C          4.36430       -0.20610       -2.10780
H          1.42010        1.49620        0.48280
H          0.02590        2.08060       -0.44070
H         -0.16480        1.65320        1.26570
H          0.31900       -0.73260        0.74980
H         -1.84840        0.38010       -1.12420
H         -1.74080       -1.29080       -0.54830
H         -2.06680        0.02210        0.59210
H          0.50930       -1.51540       -1.60260
H          0.55570        0.17130       -2.15490
H          2.84650       -1.79880       -2.45870
H          3.44840       -0.00780       -4.15590
H          2.92590        1.26880       -2.95550
H          4.61060        0.46540       -1.29330
H          5.18290       -0.83000       -2.44810
