20
gdb 14094	3.10434	1.65883	1.464	1.6757	75.26	-0.2213	0.0825	0.3038	994.727	0.175812	-348.978215	-348.96959	-348.968646	-349.011305	32.082
C         -0.06990        1.49830       -0.02450
C          0.08080       -0.00650       -0.05000
C          1.46880       -0.63800       -0.12290
C          0.66480       -0.72130        1.13140
O          1.05430       -0.01220        2.31120
C          0.47880       -1.04040        3.14880
C          0.13740       -1.92080        1.92320
C         -1.31200       -2.34000        1.72920
H          0.68220        1.95020        0.62770
H          0.03920        1.92710       -1.02650
H         -1.05360        1.78910        0.36030
H         -0.70340       -0.54060       -0.58270
H          1.61040       -1.53490       -0.71850
H          2.32050        0.03560       -0.10810
H          1.21080       -1.44320        3.85710
H         -0.39510       -0.67130        3.70200
H          0.79930       -2.78880        1.84350
H         -1.98520       -1.48000        1.80670
H         -1.46570       -2.79940        0.74670
H         -1.61100       -3.07390        2.48540
