18
gdb 9742	4.07553	1.47144	1.41276	2.3884	68.39	-0.2644	-0.0337	0.2308	955.7934	0.15379	-384.970246	-384.962318	-384.961373	-385.003159	29.641
O         -0.18230        1.41430        0.30240
C         -0.01960        0.03650        0.05110
C          0.69930       -0.64770        1.24230
C         -0.43760       -0.84900        2.25340
C         -1.59840       -1.36390        1.38240
C         -1.40670       -0.68080        0.00030
C          0.75240       -0.14890       -1.23460
O          1.16750        0.78190       -1.88260
H          0.30050        1.86640       -0.40790
H          1.10370       -1.62080        0.93220
H          1.52420       -0.02970        1.60370
H         -0.17380       -1.53270        3.06470
H         -0.69330        0.11830        2.69790
H         -1.53180       -2.45210        1.27690
H         -2.57770       -1.14580        1.81570
H         -2.15860        0.08330       -0.20430
H         -1.45260       -1.41340       -0.81250
H          0.92410       -1.19970       -1.54920
