16
gdb 15626	3.39315	1.80543	1.20536	0.5389	68.87	-0.2256	-0.0498	0.1758	983.4363	0.131159	-379.962891	-379.95472	-379.953776	-379.996218	28.452
C         -0.00580        1.43210       -0.06240
N         -0.00890       -0.00530        0.09990
C          0.63700       -0.62820        1.10770
N          1.22780       -0.07550        2.10780
C          1.76460       -1.12280        2.99080
C          1.42940       -2.50000        2.37560
C          0.68430       -2.13300        1.10300
O          0.22490       -2.84400        0.24230
H          0.98010        1.81600       -0.35720
H         -0.73600        1.71030       -0.82510
H         -0.27860        1.91000        0.88260
H         -0.30390       -0.60330       -0.65590
H          2.84530       -0.97700        3.10280
H          1.33340       -1.00450        3.99170
H          2.31160       -3.09880        2.13030
H          0.78970       -3.12010        3.01110
