14
gdb 9198	5.15886	1.0196	0.98722	3.3692	58.83	-0.2601	-0.0101	0.25	1179.0429	0.106357	-415.887945	-415.879226	-415.878282	-415.923047	28.88
N          0.22660        1.11920       -0.47690
C         -0.14020       -0.00640        0.35790
C         -1.51390       -0.60360        0.07560
O         -2.29150       -0.21960       -0.75560
O         -1.75950       -1.65220        0.91210
C         -3.01650       -2.30840        0.72880
C         -2.92600       -3.37070       -0.27890
N         -2.86140       -4.21780       -1.06090
H          0.20540        0.83740       -1.45280
H         -0.47820        1.84630       -0.39450
H          0.59800       -0.81000        0.25390
H         -0.11300        0.28210        1.41540
H         -3.27860       -2.74330        1.69550
H         -3.77950       -1.58750        0.42410
