14
gdb 20963	7.70138	1.15599	1.01793	3.6027	60.1	-0.2674	-0.037	0.2304	1103.7538	0.106832	-415.81435	-415.807084	-415.80614	-415.8466	25.526
C         -0.05810        1.50260        0.01110
C          0.00600       -0.01080        0.00300
O         -1.35140       -0.50410        0.01180
C         -1.49070       -1.82430        0.00650
N         -0.51500       -2.69580       -0.00590
O         -1.14000       -3.92490       -0.00660
N         -2.49830       -3.79590        0.00540
C         -2.73850       -2.51790        0.01360
H          0.95560        1.91350        0.00470
H         -0.58760        1.87480       -0.87010
H         -0.57270        1.86590        0.90470
H          0.51340       -0.39750       -0.88780
H          0.52810       -0.40640        0.88120
H         -3.74180       -2.12360        0.02390
