12
gdb 76	9.69683	4.1533	3.01703	1.1876	43.57	-0.2595	0.0352	0.2948	443.1687	0.102062	-248.416462	-248.410358	-248.409414	-248.445651	20.256
C         -0.09160        1.37540       -0.00730
O         -0.06960       -0.04830       -0.11150
C          0.68110       -0.56140       -1.10730
C          0.60410       -2.06700       -1.08770
N          1.32650        0.19270       -1.89970
H          0.91460        1.76840        0.16260
H         -0.48560        1.82620       -0.92240
H         -0.73970        1.60010        0.84110
H         -0.43430       -2.39240       -1.20330
H          1.20630       -2.50050       -1.88750
H          0.95650       -2.44980       -0.12500
H          1.83500       -0.36100       -2.58490
