16
gdb 15663	3.57497	1.82833	1.27734	4.4278	66.84	-0.2492	-0.0569	0.1923	924.0076	0.13166	-383.775752	-383.768545	-383.767601	-383.807441	27.071
O          0.02080        1.45120       -0.08840
C          0.06800        0.04580       -0.06540
C         -1.33890       -0.57220        0.02360
C         -1.40240       -2.11210        0.00180
C         -2.23540       -2.46910        1.20740
C         -2.58070       -1.40500        1.94380
C         -2.01780       -0.17990        1.34420
O         -2.03630        0.94370        1.81160
H         -0.56050        1.71580        0.64080
H          0.55710       -0.27830       -0.99110
H          0.67860       -0.33420        0.77350
H         -1.93500       -0.14420       -0.79100
H         -1.83900       -2.50990       -0.92120
H         -0.40470       -2.56530        0.08370
H         -2.49700       -3.49700        1.43640
H         -3.14970       -1.39970        2.86430
