14
gdb 6633	5.86247	0.8076	0.71614	3.4241	73.95	-0.2583	-0.0505	0.2077	1500.8748	0.103129	-345.355958	-345.346742	-345.345797	-345.392682	30.851
C          0.01120        1.53420       -0.04020
C         -0.03220        0.02500        0.08700
O         -0.08010       -0.54710        1.15430
C         -0.01220       -0.70630       -1.16850
C          0.00490       -1.31140       -2.21150
C          0.02430       -2.04520       -3.47620
C          0.03790       -3.49990       -3.31920
C          0.04950       -4.69410       -3.20400
H          0.91810        1.84050       -0.57290
H         -0.84090        1.88680       -0.63130
H         -0.00970        1.98540        0.95280
H         -0.84810       -1.74610       -4.07400
H          0.90010       -1.72800       -4.05940
H          0.05930       -5.75030       -3.09320
