14
gdb 11868	5.30964	1.54088	1.30823	2.9461	65.58	-0.2466	-0.0585	0.1881	895.4116	0.107226	-382.552117	-382.545545	-382.5446	-382.583048	24.987
O         -0.00630       -0.00820       -0.04720
C         -0.01400        1.19820       -0.00660
C         -1.26490        2.09620        0.01860
C         -0.70600        3.50900       -0.05030
C         -1.37720        4.65560       -0.68740
O         -1.30640        4.55230        0.73200
C          0.77430        3.38090        0.00870
C          1.16660        2.10040        0.02260
H         -1.93570        1.83770       -0.80440
H         -1.81070        1.94210        0.95450
H         -0.78680        5.45650       -1.13200
H         -2.36500        4.50950       -1.12310
H          1.41410        4.25560        0.04030
H          2.18140        1.72510        0.05050
