12
gdb 2557	3.7201	2.5624	1.70134	1.5072	63.3	-0.2447	0.0101	0.2549	719.8233	0.087956	-286.13406	-286.127075	-286.12613	-286.164626	25.988
C          0.03690       -1.16660       -0.00020
C         -0.00870        0.03450        0.02040
C         -0.03900        1.47700        0.03360
C          0.52750        2.16800        1.24820
N          1.26880        2.20180       -0.00590
C         -1.11650        2.09300       -0.70280
C         -2.02930        2.59940       -1.29660
H          0.06660       -2.22800       -0.01960
H          0.08600        3.11410        1.54530
H          0.86870        1.53020        2.05820
H          2.01350        1.50800        0.00760
H         -2.83050        3.04770       -1.83020
