13
gdb 8756	4.33904	1.44187	1.08968	3.8983	63.99	-0.2694	-0.069	0.2004	999.2124	0.093284	-398.609762	-398.601421	-398.600477	-398.642942	28.521
C         -0.02840        1.48390        0.00590
N         -0.00700        0.02060        0.00420
C         -0.00430       -0.65670        1.22810
O         -0.01840       -0.09710        2.29660
C          0.01060       -0.72540       -1.17840
O          0.02890       -1.93790       -1.20450
C          0.00560        0.06250       -2.39730
C          0.00250        0.65110       -3.44580
H          0.85740        1.88550       -0.49120
H         -0.92140        1.85960       -0.49850
H         -0.03730        1.79560        1.04950
H          0.01250       -1.74500        1.09150
H         -0.00050        1.16540       -4.37650
