10
gdb 4212	6.06795	2.70281	1.86991	1.0018	49.78	-0.2608	-0.0539	0.2069	593.2708	0.068855	-363.504227	-363.499332	-363.498388	-363.532944	18.01
F          0.00180        0.02170        0.00340
C         -0.01630        1.35200        0.01070
C         -1.21720        2.04610        0.03010
N         -1.23780        3.37940        0.03750
C         -0.05210        3.99100        0.02520
N          1.14970        3.41200        0.00650
C          1.16530        2.07860       -0.00080
H         -2.16560        1.51470        0.03970
H         -0.06690        5.07730        0.03130
H          2.12780        1.57330       -0.01610
