15
gdb 2924	6.71199	2.02917	1.6164	1.5234	58.36	-0.214	0.0625	0.2764	766.7454	0.127355	-341.849127	-341.842318	-341.841373	-341.879953	24.183
C          0.00640        1.35980       -0.04770
O         -0.04650       -0.06190        0.09840
C         -1.27490       -0.58360        0.10770
N         -2.37410        0.05590       -0.00980
C         -3.42760       -0.96610        0.08330
C         -2.70230       -2.33570       -0.06660
N         -1.33080       -1.95930        0.29980
H          1.06570        1.61890       -0.04470
H         -0.46320        1.66820       -0.98570
H         -0.51250        1.85020        0.78000
H         -3.92790       -0.89390        1.05850
H         -4.19210       -0.81490       -0.68440
H         -3.09800       -3.10850        0.59750
H         -2.75710       -2.70660       -1.09990
H         -0.56550       -2.49500       -0.08450
