18
gdb 17872	3.10723	2.07039	1.92505	2.9895	70.57	-0.2293	-0.0073	0.222	813.1604	0.156825	-347.824114	-347.817492	-347.816548	-347.854678	26.505
O         -0.00040        0.05390       -0.06370
C         -0.01570        1.25050       -0.01270
C         -1.11080        2.31860        0.10370
C         -0.02960        3.16150        0.85720
C          1.05330        2.34740        0.07500
C          1.23580        2.91370       -1.35820
C         -0.07110        3.57180       -1.86010
C         -1.34630        2.87940       -1.32390
H         -2.04250        2.05380        0.60700
H         -0.04590        4.24340        0.71480
H         -0.01240        2.93570        1.92520
H          2.00470        2.10770        0.55330
H          2.04760        3.64900       -1.36820
H          1.54580        2.09670       -2.01970
H         -0.08070        4.61640       -1.53350
H         -0.08610        3.60330       -2.95370
H         -1.65180        2.05410       -1.97730
H         -2.17740        3.59280       -1.31210
