20
gdb 16765	3.8686	1.50388	1.40857	1.7814	73.65	-0.2546	0.0898	0.3444	996.7336	0.17825	-349.007592	-348.999901	-348.998957	-349.039506	29.773
C          0.23930        1.32120       -0.34500
C         -0.10560       -0.16710       -0.23630
C         -1.55320       -0.44270        0.21130
C         -2.61320       -0.08010       -0.87410
C         -2.97130       -1.39520       -1.53410
O         -1.82920       -2.16720       -1.93860
C         -2.48680       -2.50500       -0.70710
C         -1.79970       -1.95050        0.52240
H          1.28360        1.46060       -0.64190
H         -0.38070        1.83550       -1.08700
H          0.09550        1.83220        0.61420
H          0.07200       -0.67130       -1.19160
H          0.57300       -0.63190        0.49080
H         -1.73780        0.14960        1.11440
H         -3.51820        0.34510       -0.42330
H         -2.23900        0.65420       -1.59410
H         -3.83820       -1.47580       -2.18600
H         -2.96240       -3.48290       -0.68960
H         -0.86920       -2.47890        0.75500
H         -2.46820       -2.07620        1.38310
