15
gdb 7315	4.09813	1.14581	0.95362	3.6051	58.96	-0.2489	-0.0259	0.2231	1152.1187	0.116425	-436.976506	-436.967535	-436.96659	-437.011194	30.859
N         -0.03900        1.32140        0.06750
C          0.02530       -0.02500       -0.04460
O          1.06940       -0.64520       -0.16100
C         -1.30840       -0.79310       -0.00220
O         -1.06320       -2.12340       -0.36470
C         -1.93690       -0.71910        1.41120
C         -3.23900       -1.49160        1.47490
O         -4.28330       -1.01720        1.84440
H          0.81540        1.85340        0.03070
H         -0.91450        1.81420        0.09640
H         -2.00190       -0.33670       -0.72540
H         -0.09180       -2.19300       -0.39170
H         -1.22640       -1.17630        2.11250
H         -2.12990        0.31140        1.72290
H         -3.16300       -2.54730        1.14350
