22
gdb 10607	2.34419	1.70709	1.3075	1.1649	78.52	-0.2396	0.0846	0.3242	1101.9959	0.197852	-350.189914	-350.180023	-350.179079	-350.224199	36.13
C         -0.69930        1.47190        0.70330
C         -0.08550        0.19690        0.11320
C          0.87530       -0.48090        1.07380
C          0.35330       -1.37330        2.16370
C          1.16950       -1.96630        1.02880
C          0.56370       -2.92880        0.03070
O          1.94270        0.33270        1.50190
C          2.93180        0.56940        0.52020
H          0.08150        2.18020        0.99280
H         -1.35940        1.96230       -0.01870
H         -1.28570        1.24430        1.59950
H         -0.87890       -0.50730       -0.15570
H          0.43350        0.43520       -0.82430
H          0.81900       -1.28670        3.13850
H         -0.71330       -1.57690        2.18220
H          2.19520       -2.19950        1.30460
H         -0.48350       -2.69450       -0.18160
H          1.10570       -2.91860       -0.92170
H          0.59320       -3.95380        0.41750
H          3.32990       -0.36960        0.10930
H          2.55970        1.18140       -0.31370
H          3.74260        1.11250        1.01220
