18
gdb 8500	3.89642	2.02152	1.59598	1.7982	72.17	-0.2277	0.0856	0.3132	863.0188	0.152508	-347.724848	-347.71746	-347.716516	-347.755818	29.179
C         -0.00410        1.47720       -0.01860
C          0.04080       -0.02160       -0.08830
C          0.55920       -0.96340       -1.20130
C          0.07320       -1.96070       -0.12260
C          0.07840       -3.46170       -0.10590
C          0.51160       -1.00370        1.03530
O         -0.77870       -1.03730        1.71820
C         -1.10370       -1.01760        0.29470
H          0.99970        1.90950       -0.09310
H         -0.60820        1.89570       -0.83080
H         -0.44350        1.79360        0.93320
H          0.00490       -0.95590       -2.14560
H          1.63630       -0.94190       -1.39760
H          1.09580       -3.85740       -0.19640
H         -0.34850       -3.82600        0.83440
H         -0.51300       -3.87110       -0.93210
H          1.42240       -0.99910        1.63600
H         -2.15330       -1.02990       -0.00340
