18
gdb 16984	4.20062	2.2024	1.94292	1.6247	70.98	-0.2413	0.0881	0.3294	767.3384	0.156384	-347.752689	-347.74669	-347.745746	-347.782294	25.576
C         -0.06710        1.45360       -0.17860
C          1.45040        1.62330        0.20590
C          1.37440        0.20750        0.76630
C          2.14310       -1.09650        0.93700
C          0.86810       -1.95380        1.31020
C         -0.19670       -0.80780        1.32550
O          0.55890        0.23230        2.00510
C          0.06830       -0.10200       -0.00750
H         -0.74910        1.92750        0.52630
H         -0.32280        1.76320       -1.19340
H          2.08980        1.68560       -0.67970
H          1.72000        2.41390        0.90950
H          2.62980       -1.43010        0.01700
H          2.88020       -1.06940        1.74230
H          0.65190       -2.73930        0.58030
H          0.95110       -2.40790        2.29950
H         -1.17350       -1.02480        1.76350
H          0.07040       -0.68150       -0.93270
