19
gdb 8420	3.49871	1.85362	1.55792	1.8071	71.22	-0.2272	0.0633	0.2905	905.3061	0.164474	-365.01817	-365.009955	-365.009011	-365.049964	31.977
C         -0.09710        1.56710        0.06120
C          0.06010        0.07080       -0.09820
C          0.61860       -0.65270       -1.26090
N          1.31450       -0.68580        0.10580
C          2.42980        0.13290       -0.48890
C          1.81660        0.02610       -1.91800
C          2.59220       -0.91550       -2.83350
O          1.47880        1.22450       -2.59940
H          0.58180        2.13710       -0.57100
H         -1.11730        1.85030       -0.21830
H          0.05120        1.85550        1.10820
H         -0.74980       -0.48450        0.37460
H          0.13680       -1.53530       -1.67380
H          2.52320        1.14190       -0.07900
H          3.38020       -0.39280       -0.37080
H          2.80460       -1.86610       -2.33620
H          2.01730       -1.11790       -3.74290
H          3.55180       -0.46880       -3.12320
H          2.25710        1.52480       -3.08140
