17
gdb 20217	3.43658	2.96159	2.08983	1.7144	69.33	-0.2129	0.0709	0.2837	705.2124	0.14588	-326.657812	-326.652133	-326.651188	-326.687323	23.846
C          0.00210        1.52550        0.22510
C          1.29710        2.21590       -0.23550
C          2.44150        1.24240       -0.40660
C          2.54840       -0.10030        0.21340
C          1.20410       -0.82640        0.40030
C          0.05820        0.03930       -0.05930
C          0.97040       -0.60270       -1.07380
N          2.33190        0.04290       -1.27300
H         -0.15040        1.67100        1.30110
H         -0.86350        1.97190       -0.27480
H          1.14410        2.71230       -1.20150
H          1.59380        2.99980        0.46910
H          3.40190        1.72340       -0.58550
H          3.48390       -0.49760        0.59570
H          1.08270       -1.72260        0.99380
H         -0.89530       -0.47970        0.00830
H          0.63000       -1.27420       -1.85190
