16
gdb 4500	3.5318	1.80181	1.21898	2.2307	68.5	-0.2185	0.0164	0.2349	987.0249	0.130197	-379.970881	-379.962442	-379.961498	-380.003764	29.92
C          0.09930        1.40610        0.16260
C         -0.03720       -0.07260        0.08740
N         -1.11850       -0.78070        0.18370
C         -0.69720       -2.10380        0.04550
C         -1.64510       -3.25210        0.09670
C          0.64670       -2.12260       -0.13090
N          1.55810       -3.15920       -0.31480
O          1.08700       -0.80210       -0.10500
H          0.75710        1.70130        0.98700
H          0.52800        1.81120       -0.76020
H         -0.88690        1.84360        0.31940
H         -1.10640       -4.19330       -0.03340
H         -2.17610       -3.27950        1.05440
H         -2.40400       -3.16900       -0.68890
H          2.25600       -3.20100        0.42140
H          2.04440       -3.09880       -1.20400
