16
gdb 13955	5.02309	1.33611	1.23509	4.421	68.72	-0.269	0.0313	0.3003	992.8034	0.131755	-342.760174	-342.752894	-342.75195	-342.792196	27.02
N         -0.07940       -1.09560       -0.49250
C         -0.07540        0.02990       -0.23100
C         -0.04070        1.45330        0.11530
C          1.37050        1.98860        0.15860
C          2.45230        1.61880        1.18830
C          2.99780        3.08380        1.08920
C          1.89640        3.39440        0.06490
N          1.96080        2.48360       -1.07510
H         -0.61650        2.01320       -0.62810
H         -0.53290        1.58410        1.08630
H          2.04810        1.39670        2.17900
H          3.12190        0.80460        0.89490
H          2.88730        3.63190        2.02750
H          4.02290        3.21220        0.72720
H          1.37330        4.33510       -0.06690
H          2.89740        2.12180       -1.24770
