18
gdb 15334	3.62302	1.02456	0.86026	1.3958	78.23	-0.2288	0.0549	0.2837	1361.9532	0.151933	-347.762381	-347.752858	-347.751914	-347.79811	32.827
C          0.10860        1.52360        0.09780
C          0.04840        0.06890        0.07790
C          0.00200       -1.13580        0.06700
C         -0.02470       -2.57140        0.03870
C         -0.55040       -3.36630        1.22590
C         -1.33250       -3.34960       -0.05350
C         -2.64960       -2.62680       -0.12900
O         -3.65450       -3.49600        0.38020
H          1.09950        1.88200       -0.20310
H         -0.62330        1.96750       -0.58670
H         -0.09300        1.91930        1.09970
H          0.80970       -3.02300       -0.49090
H         -0.01740       -4.26840        1.50390
H         -0.94420       -2.79570        2.05940
H         -1.28970       -4.25030       -0.65900
H         -2.59030       -1.69380        0.45010
H         -2.85960       -2.34840       -1.17410
H         -4.50440       -3.05830        0.27490
