16
gdb 17886	2.83386	2.45605	2.26373	1.5795	63.66	-0.2422	-0.0081	0.2341	727.7763	0.132563	-383.721571	-383.715354	-383.71441	-383.751482	25.528
O          0.18070        1.42600        0.16660
C          0.02900        0.05100        0.01450
C         -1.36930       -0.61820       -0.11680
C         -2.32160        0.22260       -0.97960
C         -1.60670        0.62910       -2.25340
C         -0.35290        0.21070       -2.45090
C          0.24250       -0.65400       -1.35980
O         -0.74770       -1.63990       -0.94500
H         -0.16080        1.84350       -0.63540
H          0.61310       -0.43690        0.79610
H         -1.85030       -1.03760        0.77060
H         -3.22690       -0.35040       -1.21590
H         -2.65170        1.10720       -0.41820
H         -2.13840        1.23340       -2.98310
H          0.22450        0.46900       -3.33230
H          1.20480       -1.10500       -1.60790
