12
gdb 4327	4.19008	1.89842	1.30649	3.922	59.66	-0.2346	-0.0396	0.195	838.593	0.0869	-414.741254	-414.73518	-414.734236	-414.771472	23.252
O          0.01390        1.32610        0.00780
C         -0.00940       -0.01480        0.00090
C         -1.20140       -0.68530        0.00390
C         -1.21610       -2.12060       -0.00360
O         -2.16490       -2.87990       -0.00230
N          0.11070       -2.66010       -0.01360
C          1.22520       -1.90810       -0.01570
N          1.22600       -0.60970       -0.00900
H          0.94630        1.58350        0.00410
H         -2.14400       -0.15680        0.01190
H          0.16450       -3.66980       -0.01910
H          2.17270       -2.44090       -0.02370
