12
gdb 3663	3.68833	3.50383	1.81962	5.0224	53.57	-0.2228	-0.0137	0.2091	652.8895	0.089469	-356.682218	-356.67537	-356.674426	-356.713365	24.094
C         -0.03870        1.50960        0.07210
C         -0.02800        0.02070       -0.02250
C         -0.01000       -0.81070       -1.12330
N         -0.04340       -0.53690       -2.46230
O         -0.01480       -2.07210       -0.73900
N         -0.04020       -2.02480        0.75350
N         -0.04620       -0.81410        1.06010
H          0.78630        1.96490       -0.48980
H         -0.97270        1.94550       -0.30230
H          0.07200        1.80520        1.11740
H          0.28720        0.37740       -2.73020
H          0.27760       -1.27980       -3.06480
