17
gdb 4193	4.40275	1.57904	1.29548	1.1002	71.87	-0.2277	0.017	0.2446	950.5206	0.14356	-363.827826	-363.820723	-363.819779	-363.858995	27.913
O         -0.10640        1.31770       -0.03640
N          0.02080       -0.08770       -0.04720
C         -1.11750       -0.65360        0.04110
C         -2.48260       -0.00950        0.18930
C         -3.35800       -1.09870        0.86040
C         -2.65860       -2.42600        0.57820
C         -2.29150       -2.72580       -0.84410
C         -1.24850       -2.12850        0.09050
H          0.81360        1.60040       -0.05810
H         -2.41670        0.91240        0.76980
H         -2.86800        0.27590       -0.79670
H         -3.39000       -0.93440        1.94280
H         -4.39210       -1.08170        0.50130
H         -2.84100       -3.25760        1.24930
H         -2.14720       -3.76520       -1.11660
H         -2.69260       -2.10890       -1.64190
H         -0.38550       -2.72200        0.36270
