19
gdb 18533	5.38845	1.04524	0.98631	2.3356	71.53	-0.2258	0.0813	0.3071	1216.152	0.166024	-365.006302	-364.998174	-364.99723	-365.039266	30.228
O         -0.09300        1.46210       -0.03060
C         -0.01650        0.05080        0.11150
C         -1.40940       -0.52180       -0.11620
C         -1.45290       -2.04090       -0.01100
C         -1.25280       -2.72980        1.39670
C         -2.62000       -3.39610        1.21940
N         -3.59850       -2.28740        1.09670
C         -2.82650       -2.72690       -0.09240
H          0.77880        1.82860        0.14270
H          0.68980       -0.38300       -0.61690
H          0.34340       -0.22810        1.11540
H         -2.10200       -0.08610        0.61040
H         -1.75120       -0.20940       -1.11150
H         -0.76940       -2.49540       -0.73680
H         -0.41690       -3.43240        1.40700
H         -1.18060       -2.06010        2.25790
H         -2.93430       -4.37490        1.56030
H         -4.52310       -2.71060        1.01920
H         -3.33900       -3.07030       -0.98350
