13
gdb 974	3.65083	3.44963	1.79343	2.6012	55.6	-0.194	0.0466	0.2407	668.6975	0.102517	-340.673964	-340.667071	-340.666127	-340.704955	24.472
C          0.07580        1.50760        0.04380
C          0.06660        0.01490       -0.01950
C         -0.02760       -0.79950       -1.11880
O         -0.13890       -0.59740       -2.45610
N          0.00740       -2.09170       -0.65980
C          0.12180       -2.01640        0.70530
N          0.15940       -0.77610        1.11560
H          0.99990        1.88460        0.49580
H         -0.00660        1.95550       -0.95380
H         -0.75820        1.88920        0.64310
H         -0.15000        0.35120       -2.61770
H         -0.04300       -2.91530       -1.23550
H          0.17130       -2.89840        1.32520
