15
gdb 13034	3.96568	1.38731	1.16203	3.3871	68.68	-0.2502	0.0241	0.2742	1025.6405	0.118011	-362.645939	-362.63796	-362.637016	-362.679197	28.214
O         -0.06320       -0.00790       -0.50070
C         -0.07240        1.15940       -0.21280
C         -1.13050        2.25100        0.07220
C          0.07950        3.19370        0.33570
N          0.94700        2.06080       -0.00230
C          2.37970        1.87240        0.05010
C          2.94770        2.15660        1.36850
C          3.40080        2.41700        2.45010
H         -1.75390        2.50950       -0.78510
H         -1.76190        2.04330        0.93760
H          0.17510        4.04560       -0.34580
H          0.18850        3.53670        1.36920
H          2.55650        0.82680       -0.22800
H          2.87830        2.49580       -0.70540
H          3.80970        2.63090        3.40680
