14
gdb 5098	3.3806	2.0319	1.27816	0.8452	60.15	-0.1755	0.0497	0.2252	887.195	0.107748	-415.867613	-415.859558	-415.858614	-415.899554	29.736
N         -0.00420        1.41620        0.07640
C         -0.03220        0.02250        0.03030
C         -1.07870       -0.84530        0.03680
O         -0.59180       -2.15320        0.03290
C          0.74860       -2.06370        0.03630
O          1.45130       -3.21260        0.01580
C          1.17550       -0.77270        0.02760
N          2.48350       -0.22710       -0.05370
H          0.85960        1.76670       -0.32230
H         -0.80250        1.85820       -0.35830
H         -2.14870       -0.74750        0.05320
H          0.83030       -3.93770       -0.12000
H          3.11380       -0.86180       -0.53110
H          2.87790       -0.04860        0.86590
