17
gdb 12438	3.39657	1.91437	1.33293	3.6026	69.72	-0.2363	0.0021	0.2384	916.8435	0.144567	-363.899429	-363.892094	-363.89115	-363.931278	27.777
O         -0.01600       -0.12480       -0.18130
C         -0.00960        1.08990       -0.07270
C         -1.34340        1.83560        0.01190
C         -1.38840        3.35300       -0.24750
C         -0.63560        4.13780        0.79450
C          0.68550        4.04430        0.92080
C          1.50650        3.18670       -0.01220
N          1.18280        1.75840        0.02490
H         -2.00190        1.30990       -0.68570
H         -1.73740        1.62630        1.01400
H         -0.97950        3.56190       -1.24570
H         -2.43620        3.66580       -0.27620
H         -1.20630        4.75780        1.48060
H          1.21280        4.59070        1.69650
H          1.41600        3.57470       -1.03950
H          2.56420        3.26410        0.24990
H          1.96150        1.12190       -0.06990
