17
gdb 6871	2.83655	1.69305	1.46522	4.4134	69.39	-0.2401	0.0256	0.2657	940.6123	0.141922	-360.034498	-360.025504	-360.02456	-360.067514	32.9
C         -0.15550        1.52400       -0.09210
C         -0.03110        0.01440       -0.06610
N         -1.10570       -0.74490        0.53120
C          0.67970       -0.71150       -1.19020
N          1.29900       -0.07780       -2.31720
C          1.34040       -0.62990        0.18470
C          2.50290        0.19020        0.34570
N          3.43700        0.86800        0.44530
H          0.70200        2.00950       -0.56320
H         -1.05680        1.81450       -0.64500
H         -0.24440        1.92150        0.92480
H         -1.28100       -0.42490        1.48050
H         -1.96690       -0.59570        0.01110
H          0.26720       -1.69560       -1.40030
H          0.64580        0.50200       -2.83180
H          2.09220        0.49540       -2.05250
H          1.33050       -1.53550        0.77940
