10
gdb 2560	3.78607	2.63246	1.72984	3.7991	54.23	-0.2923	-0.0305	0.2617	681.4227	0.064742	-322.115604	-322.109084	-322.10814	-322.145969	23.087
C          0.02120       -1.17540       -0.02930
C          0.00470        0.02400        0.01620
C         -0.03260        1.46240        0.07050
C          0.53850        2.19730        1.23120
O          1.22350        2.15530       -0.00850
C         -1.11790        2.09030       -0.66740
N         -1.98860        2.58560       -1.24240
H          0.03920       -2.23710       -0.07370
H          0.10610        3.15770        1.50410
H          0.97400        1.60940        2.03600
