15
gdb 2197	4.43937	2.22385	1.65766	2.2941	57.51	-0.2475	-0.0259	0.2217	759.9654	0.123533	-345.66052	-345.652979	-345.652035	-345.692086	26.779
C          0.10830        1.58650       -0.03340
C          0.09090        0.06650       -0.00000
C          0.68490       -0.77020       -1.18410
C          1.30910       -1.77930       -0.15320
O          2.58500       -2.31200       -0.32990
C          1.14750       -0.64280        0.85800
O          1.87290       -0.28120        1.74470
H          1.11100        1.95980       -0.26360
H         -0.58230        1.97250       -0.78940
H         -0.18420        1.99810        0.93710
H         -0.90770       -0.30950        0.25230
H         -0.01900       -1.18600       -1.90520
H          1.47270       -0.21970       -1.70470
H          0.59430       -2.59100        0.03570
H          3.18660       -1.79170        0.21790
