13
gdb 8592	5.40572	1.82519	1.7356	3.4044	59.23	-0.2528	-0.0344	0.2184	746.9914	0.095472	-398.450034	-398.444224	-398.443279	-398.479798	23.011
O         -0.16830       -0.02430       -0.40340
C         -0.02330        1.08880       -0.03660
O         -1.03830        1.99470        0.36000
C          0.03960        2.88580        0.84760
C          0.94490        4.16370        0.85030
N          1.90200        2.98460        1.21370
C          0.77310        2.49470        2.13270
C          1.08190        2.21460        0.05580
H          1.16560        4.63790       -0.10570
H          0.84410        4.87930        1.66870
H          0.63980        3.10940        3.02390
H          0.84650        1.43120        2.37020
H          1.35400        2.58220       -0.93380
