18
gdb 15787	4.54179	1.04722	0.9115	2.9231	68.98	-0.2508	-0.0226	0.2283	1249.0722	0.151068	-384.928868	-384.919886	-384.918942	-384.963505	31.158
C         -0.09730        1.80140        0.16600
C         -0.09600        0.27460        0.00820
C          0.68140       -0.42750        1.14450
C          2.16400       -0.14740        1.07820
O          2.82350        0.32930        1.96540
C         -1.51180       -0.25990       -0.04950
C         -2.19130       -0.55260       -1.31710
O         -1.66640       -1.60520       -0.50270
H          0.92150        2.19840        0.20280
H         -0.61930        2.28270       -0.66660
H         -0.59750        2.09840        1.09470
H          0.38710        0.01110       -0.94250
H          0.30870       -0.13000        2.12980
H          0.54370       -1.51160        1.03020
H          2.63300       -0.42310        0.10290
H         -2.13330       -0.01100        0.81430
H         -3.27750       -0.50620       -1.37840
H         -1.66590       -0.38490       -2.25660
