14
gdb 14565	7.49847	0.70015	0.68352	0.3546	76.56	-0.2543	0.0312	0.2856	1593.7731	0.103391	-308.163476	-308.154396	-308.153452	-308.19938	31.447
C         -0.07170       -1.10660       -0.67690
C         -0.01820       -0.00560       -0.20160
C          0.03190        1.33630        0.38240
C          1.37000        1.93080        0.37230
C          2.46470        2.42610        0.36450
C          3.80280        3.02060        0.35540
C          3.84190        4.36870       -0.21490
C          3.88650        5.47470       -0.67930
H         -0.11470       -2.07980       -1.09930
H         -0.66180        1.99350       -0.16000
H         -0.34520        1.29660        1.41360
H          4.19950        3.04930        1.37970
H          4.48600        2.36940       -0.20710
H          3.92150        6.45240       -1.09200
