18
gdb 8925	2.65424	1.56712	1.21608	2.4103	69.8	-0.2588	0.0407	0.2995	1069.9997	0.150141	-384.891229	-384.881474	-384.88053	-384.925799	34.662
C          0.08170        1.35450        0.16490
O          0.05480       -0.04990        0.05400
C          0.64140       -0.57800       -1.12960
C          2.16020       -0.69310       -1.00670
C         -0.02370       -1.96290       -1.30900
O          0.13340       -2.73980       -0.13270
C         -1.43390       -1.82470       -1.69690
C         -2.58700       -1.71060       -2.01580
H          1.10560        1.75210        0.21370
H         -0.43880        1.83480       -0.67700
H         -0.43480        1.61340        1.09240
H          0.37280        0.05230       -1.99050
H          2.61090        0.27520       -0.77300
H          2.41530       -1.40270       -0.21600
H          2.59540       -1.04500       -1.94760
H          0.50980       -2.50540       -2.09830
H         -0.20570       -2.18970        0.58580
H         -3.60720       -1.61880       -2.29610
