18
gdb 6489	3.76826	1.43289	1.3419	1.6576	68.38	-0.2602	0.0168	0.277	1021.0059	0.150956	-384.970718	-384.961752	-384.960808	-385.004659	32.177
C          1.64570        0.99420       -2.23000
C          1.50160       -0.49540       -2.02300
O          2.34660       -1.31920       -2.25910
O          0.27240       -0.77890       -1.52470
C         -0.03300       -2.15020       -1.26460
C          0.65820       -2.70730       -0.04500
C         -1.45900       -2.49250       -1.57750
C         -0.33620       -3.00280       -2.45980
H          0.85690        1.36150       -2.89230
H          1.53550        1.51590       -1.27490
H          2.62430        1.20760       -2.65820
H          0.43900       -2.09300        0.83480
H          0.30610       -3.72320        0.15460
H          1.73970       -2.73980       -0.19500
H         -1.97050       -3.18900       -0.92240
H         -2.08060       -1.69660       -1.97100
H         -0.22220       -2.55130       -3.43800
H         -0.06640       -4.05200       -2.41470
