16
gdb 19092	3.76969	2.57203	2.45296	0.	62.07	-0.2222	0.0545	0.2767	663.2557	0.133906	-383.670805	-383.665665	-383.664721	-383.699686	22.534
C         -0.04780        1.57710       -0.07150
C          1.48190        1.34480        0.00200
O          1.20860        0.17380        0.83610
C          0.00980        0.03120        0.00890
C          0.48760       -0.51170       -1.39480
C          2.01730       -0.74400       -1.32130
C          1.95970        0.80180       -1.40170
O          0.76090        0.65930       -2.22890
H         -0.41970        1.99890        0.86240
H         -0.48070        2.05760       -0.94460
H          2.16070        2.05510        0.47740
H         -0.77040       -0.56020        0.49120
H         -0.19110       -1.22200       -1.87020
H          2.45020       -1.22460       -0.44820
H          2.38930       -1.16580       -2.25520
H          2.74000        1.39330       -1.88410
