22
gdb 11131	5.94045	0.94196	0.89301	1.055	79.25	-0.2427	0.0859	0.3286	1392.6622	0.199259	-350.191571	-350.182239	-350.181295	-350.225818	33.991
C          0.18690        1.16660        0.63040
C          0.14510       -0.23690        0.01920
C          0.45060       -0.25260       -1.47980
C          1.95240       -0.04700       -1.85110
C          2.08490       -1.56790       -2.05670
C          0.53240       -1.67740       -2.10700
O          2.82310       -1.92420       -3.19570
C          2.92200       -3.31740       -3.38080
H          1.17100        1.62990        0.50180
H         -0.55070        1.82370        0.15600
H         -0.03010        1.14150        1.70290
H          0.85370       -0.88950        0.54740
H         -0.84810       -0.67650        0.18110
H         -0.23780        0.42830       -1.99020
H          2.07670        0.46860       -2.80670
H          2.60440        0.42010       -1.10830
H          2.49400       -2.07640       -1.16930
H          0.05490       -2.49270       -1.55600
H          0.18560       -1.69190       -3.14420
H          3.41090       -3.80810       -2.52380
H          1.93700       -3.78630       -3.52680
H          3.52650       -3.48660       -4.27530
