12
gdb 21086	3.82751	2.04651	1.34486	3.4023	63.09	-0.284	-0.0597	0.2243	832.6318	0.086123	-373.737491	-373.730662	-373.729718	-373.769051	23.442
C          0.03660        1.42180       -0.01830
N          0.03940       -0.02940        0.01570
N          0.16370       -0.75030       -1.11050
C          0.12180       -2.00320       -0.66890
N         -0.02150       -2.13610        0.66950
C         -0.07070       -0.87350        1.07510
C         -0.21650       -0.41700        2.41230
N         -0.33370       -0.00050        3.48540
H          0.97670        1.78050       -0.44240
H         -0.79440        1.77260       -0.63340
H         -0.07490        1.79520        1.00010
H          0.19780       -2.84420       -1.34120
