17
gdb 17477	3.57708	2.4967	1.96113	1.6296	71.61	-0.2249	0.0047	0.2295	750.067	0.143624	-326.682105	-326.675774	-326.67483	-326.711966	26.27
C         -0.03410        1.55070        0.03060
C         -0.02610        0.03780        0.05400
C          0.31160       -0.75340       -1.26790
N         -0.81120       -1.70780       -1.06390
C         -0.86460       -2.10930        0.42560
C          0.32940       -1.91040        1.28250
C          0.78180       -0.66000        1.12510
C         -1.35340       -0.78890       -0.01800
H          0.98220        1.94710       -0.07370
H         -0.62750        1.93230       -0.80710
H         -0.45570        1.95890        0.95570
H          0.07290       -0.16310       -2.15710
H          1.31040       -1.19240       -1.36230
H         -1.53970       -2.94520        0.56040
H          0.77760       -2.69480        1.87880
H          1.69520       -0.24520        1.53630
H         -2.37770       -0.42660       -0.00960
