12
gdb 23670	3.98638	1.82482	1.25179	3.0751	58.8	-0.2572	-0.0187	0.2385	857.2273	0.085298	-422.692506	-422.686495	-422.685551	-422.722632	23.274
O          0.10460        1.35380        0.12730
C          0.06960        0.00610        0.03400
C          0.07300       -0.67140       -1.18290
C          0.03430       -2.06060       -1.12800
F          0.03650       -2.72270       -2.28250
N         -0.00520       -2.79120       -0.03910
C         -0.00750       -2.11560        1.12060
C          0.02830       -0.73590        1.22030
H          0.13080        1.73860       -0.75610
H          0.10390       -0.15770       -2.13710
H         -0.04020       -2.72320        2.02080
H          0.02490       -0.23210        2.17830
