18
gdb 13082	4.03932	1.2956	1.07171	2.0058	73.37	-0.2532	0.0597	0.3129	1109.4117	0.152453	-347.7568	-347.748252	-347.747308	-347.789897	31.843
O          0.24380        1.18430       -0.56530
C          0.07730       -0.06710        0.06140
C         -0.11630       -0.13180        1.60090
C         -1.26310       -1.15370        1.36020
C         -1.33060       -0.69360       -0.12530
C         -2.42960        0.34580       -0.41090
C         -3.76270       -0.24470       -0.38460
C         -4.85020       -0.75680       -0.35510
H          1.11740        1.52230       -0.34540
H          0.85350       -0.77570       -0.26290
H          0.73490       -0.44680        2.20950
H         -0.48990        0.82300        1.98130
H         -0.92640       -2.18860        1.45730
H         -2.17630       -1.03100        1.94590
H         -1.39620       -1.48960       -0.87100
H         -2.37440        1.16260        0.31850
H         -2.24210        0.80790       -1.38660
H         -5.81720       -1.19420       -0.33580
