12
gdb 73	9.78802	3.78441	2.84416	3.499	42.54	-0.2438	0.0355	0.2793	457.447	0.101847	-248.448467	-248.441988	-248.441044	-248.478935	21.374
C         -0.00220        1.53340       -0.05960
C         -0.03240        0.01210        0.06840
C          0.69670       -0.48200        1.31830
N          0.98100       -1.82030        1.31980
O          1.00390        0.24610        2.24140
H          1.02110        1.89530       -0.19180
H         -0.59710        1.86210       -0.91650
H         -0.39730        1.99920        0.84550
H         -1.06940       -0.34550        0.13040
H          0.39950       -0.46910       -0.81780
H          0.63280       -2.43920        0.60870
H          1.35710       -2.22220        2.16300
