12
gdb 23750	3.407	2.36275	1.39587	2.8303	59.5	-0.2384	-0.0253	0.2131	789.895	0.085897	-418.863985	-418.857673	-418.856729	-418.894278	23.961
N         -0.02910        1.36890       -0.11210
C         -0.00830        0.00950       -0.04600
N         -1.16380       -0.66050       -0.02340
C         -1.08810       -1.99310       -0.00190
N          0.00560       -2.74770        0.00670
C          1.16840       -2.07220       -0.00740
C          1.20470       -0.70150       -0.03460
F          2.35940       -0.01630       -0.04230
H          0.81260        1.87340        0.10830
H         -0.91000        1.81500        0.08540
H         -2.03950       -2.51920        0.01340
H          2.09330       -2.64310        0.00450
