18
gdb 14471	2.87764	2.31918	1.92886	1.8201	71.3	-0.2226	0.0895	0.3121	818.5587	0.152973	-347.751496	-347.744054	-347.74311	-347.782613	29.168
C         -0.04500        1.58600       -0.11720
C          0.01430        0.09790       -0.01070
C          0.57220       -1.00670       -0.90970
C          1.37910       -1.61380        0.23400
C          0.34130       -0.92750        1.16610
C          0.56400       -0.66240        2.62200
O         -0.88910       -1.66610        0.87700
C         -0.88150       -1.02590       -0.39580
H          0.93630        2.04520        0.05050
H         -0.37990        1.88550       -1.11640
H         -0.74520        2.01470        0.60880
H          0.81840       -0.94740       -1.96270
H          1.45490       -2.70300        0.31830
H          2.36680       -1.15200        0.31910
H          1.48630       -0.09370        2.77490
H         -0.27120       -0.09990        3.04940
H          0.65090       -1.60970        3.16580
H         -1.76360       -1.08010       -1.02100
