15
gdb 8050	3.54112	1.88554	1.52968	4.4353	66.27	-0.2557	0.0024	0.2582	843.434	0.120429	-358.769334	-358.762347	-358.761403	-358.800367	26.774
N         -0.11640        1.40670       -0.17510
C          0.01840       -0.00270       -0.04470
C          0.48180       -1.00400       -1.12150
N          0.06710       -1.94430        0.02710
C          0.79240       -0.94240        0.93970
C         -1.15630       -1.00700        0.14430
C         -1.88930       -1.03710        1.40150
N         -2.48960       -1.02710        2.38980
H         -0.45710        1.82470        0.68580
H          0.77370        1.84190       -0.39700
H         -0.12600       -1.11310       -2.02320
H          1.54950       -1.05560       -1.34480
H          1.87970       -0.99160        0.84640
H          0.47480       -0.98770        1.98320
H         -1.84980       -1.11140       -0.69390
