15
gdb 2280	8.16125	1.40108	1.27457	3.6035	57.95	-0.2459	-0.0229	0.223	913.251	0.124044	-345.641113	-345.633819	-345.632875	-345.673766	24.586
O         -0.53580        0.55930        0.62550
C          0.17310        0.92020       -0.27930
C          1.37180        1.83270       -0.11630
C          1.29030        3.05020       -1.03490
C          2.56210        3.90770       -1.21800
C          2.41080        3.55210       -2.71130
O          1.29330        2.67980       -2.43450
H         -0.01570        0.59770       -1.32590
H          1.44240        2.14150        0.93140
H          2.27220        1.26130       -0.38100
H          0.39430        3.63930       -0.79440
H          2.47030        4.96310       -0.95920
H          3.45160        3.49480       -0.73790
H          2.12210        4.38750       -3.36090
H          3.24480        3.01410       -3.17570
