15
gdb 19549	4.19549	1.79321	1.77153	4.4814	67.16	-0.2412	-0.024	0.2172	797.771	0.119765	-362.591566	-362.585242	-362.584298	-362.622205	24.207
O         -0.18060        0.03560        0.16940
C         -0.00330        1.20810       -0.05820
C          1.27270        1.90560       -0.01900
C          1.67030        3.27560        0.52560
C          2.79010        2.56600        1.27490
N          2.69150        1.40940        0.30020
C          3.12810        2.07430       -0.99010
C          1.88860        2.95740       -0.93880
H         -0.84530        1.88830       -0.33130
H          1.00380        4.06640        0.84690
H          3.77900        3.03450        1.32450
H          2.48400        2.22980        2.26750
H          4.11790        2.54140       -0.94750
H          3.09140        1.34620       -1.80270
H          1.38720        3.50730       -1.72560
