14
gdb 21885	6.47439	1.64155	1.33865	2.5883	64.92	-0.2117	0.0286	0.2403	868.647	0.109739	-378.706658	-378.700274	-378.69933	-378.737313	24.196
O         -0.13120        1.34150        0.12120
C          0.06730        0.00800        0.07900
N          0.09480       -0.64760       -1.08690
N          0.21380       -1.92800       -0.66170
C          0.76270       -3.24460       -1.02030
C          0.78850       -3.51920        0.53770
C          0.34510       -2.06860        0.66760
C          0.24350       -0.81370        1.23210
H         -0.21960        1.64010       -0.79280
H          0.09800       -3.86140       -1.63070
H          1.75590       -3.19700       -1.47580
H          0.08180       -4.27570        0.88620
H          1.78150       -3.74190        0.93360
H          0.27160       -0.49600        2.25960
