16
gdb 14665	5.61276	0.62906	0.58844	1.429	78.09	-0.2424	0.032	0.2744	1869.6309	0.127153	-346.538652	-346.528447	-346.527503	-346.577309	32.925
C          0.03400        1.48190       -0.25920
C          0.00870        0.04450       -0.03010
C         -0.01560       -1.14340        0.15680
C         -0.03790       -2.58980        0.38750
C         -1.37250       -3.18530        0.29160
C         -2.46300       -3.68500        0.20820
C         -3.79370       -4.27280        0.12830
O         -3.85930       -5.16460       -0.97890
H          0.69040        1.74060       -1.09730
H         -0.96640        1.86240       -0.49290
H          0.39540        2.02070        0.62370
H          0.62490       -3.08780       -0.33430
H          0.38940       -2.81140        1.37570
H         -4.01440       -4.79580        1.07330
H         -4.53630       -3.46370        0.03260
H         -4.75120       -5.52590       -1.00200
