18
gdb 8655	2.56217	1.64969	1.39604	2.2001	74.47	-0.2502	-0.0314	0.2188	1007.7732	0.149818	-347.784994	-347.775414	-347.77447	-347.818841	34.552
C         -0.21960        1.59190        0.08840
C         -0.00320        0.07650        0.02050
C          0.69100       -0.44250       -1.26490
C          0.00570        0.03720       -2.56840
C          2.17070       -0.01250       -1.32490
O          2.74730        0.60430       -0.47090
C          0.73140       -1.90780       -1.25340
C          0.80130       -3.10850       -1.24500
H          0.72480        2.13320       -0.00130
H         -0.90070        1.94710       -0.69090
H         -0.66510        1.85630        1.05220
H          0.60430       -0.24200        0.87270
H         -0.96470       -0.44080        0.10820
H          0.02300        1.12750       -2.64160
H          0.51100       -0.37760       -3.44510
H         -1.03420       -0.29890       -2.58900
H          2.68610       -0.34240       -2.25450
H          0.84810       -4.16950       -1.23200
