17
gdb 12001	3.33461	2.04989	1.79766	0.3676	68.74	-0.2352	0.0065	0.2417	814.7537	0.142229	-363.839405	-363.831976	-363.831032	-363.870471	29.28
C         -0.08060        1.56980        0.03060
C          0.01250        0.04290       -0.00760
O         -1.29580       -0.54330        0.03630
C          0.82210       -0.47730       -1.19030
C          1.81020       -1.29330       -0.81900
C          1.86450       -1.40850        0.66730
N          2.15290       -0.09490        1.32360
C          0.76210       -0.56110        1.18410
H          0.91410        2.01010        0.12840
H         -0.54050        1.95310       -0.88840
H         -0.69830        1.88540        0.87690
H         -1.78490       -0.22990       -0.73180
H          0.60630       -0.16650       -2.20790
H          2.51590       -1.78010       -1.48180
H          2.19330       -2.31740        1.15860
H          2.45260       -0.26790        2.28240
H          0.18060       -0.82040        2.06180
