11
gdb 66	8.55919	3.89952	2.91869	1.3582	44.03	-0.2665	0.0336	0.3001	444.6452	0.088908	-231.108368	-231.102292	-231.101348	-231.137061	21.306
C         -0.00750        1.55570        0.08650
C          0.01210        0.02100        0.04940
O         -1.29150       -0.52790        0.22130
C          0.65090       -0.47720       -1.17430
C          1.13900       -0.86580       -2.20210
H          1.00820        1.95970        0.04930
H         -0.56270        1.95190       -0.76980
H         -0.49330        1.88930        1.00700
H          0.57810       -0.34460        0.91460
H         -1.78520       -0.35900       -0.58910
H          1.58080       -1.22370       -3.09920
