15
gdb 11250	5.25053	1.32637	1.17442	1.9997	66.79	-0.2275	-0.0168	0.2106	993.2939	0.119666	-399.828396	-399.821	-399.820056	-399.860438	26.979
O         -0.02810        1.45580       -0.05500
C          0.02860        0.03650        0.04500
C         -1.36980       -0.64870       -0.01760
N         -1.40030       -1.28590       -1.34200
C         -2.49100       -1.85410       -1.93860
O         -2.47820       -2.40750       -3.01680
C         -0.11290       -1.27140       -1.88600
C          0.75260       -0.60000       -1.11900
H         -0.17680        1.67270       -0.98270
H          0.50020       -0.15070        1.01340
H         -1.46920       -1.40800        0.76550
H         -2.16680        0.08940        0.09800
H         -3.40000       -1.74800       -1.31610
H          0.03670       -1.78510       -2.82440
H          1.79980       -0.44250       -1.33140
