16
gdb 2040	4.43951	2.51745	2.2454	0.6162	60.27	-0.2287	0.0763	0.3049	665.9303	0.13635	-325.728744	-325.72194	-325.720996	-325.758796	26.681
C         -0.05660        1.56130        0.06400
C          0.02790        0.04540        0.01150
O         -1.24630       -0.55240       -0.16740
C          1.12250       -0.59960       -0.93410
C          1.71080       -1.29600        0.29600
N          2.10670       -0.20940        1.22700
C          0.70060       -0.67740        1.19120
H          0.91870        1.98600        0.31160
H         -0.37050        1.96680       -0.90650
H         -0.78660        1.87510        0.81710
H         -1.64280       -0.16640       -0.95590
H          0.64680       -1.29040       -1.63300
H          1.79960        0.07800       -1.46090
H          2.18320       -2.26880        0.34970
H          2.54200       -0.64860        2.03770
H          0.20090       -1.05950        2.07290
