19
gdb 8236	4.08937	1.29976	1.2783	2.0981	74.47	-0.2428	0.0282	0.271	1079.974	0.164818	-365.063925	-365.055271	-365.054327	-365.09732	31.43
C          0.83790        0.54490       -0.88530
C          0.36750       -0.44630        0.18960
C         -0.39940        0.25110        1.32300
N         -0.39660       -1.56120       -0.38690
C         -1.48250       -1.39030       -0.97560
C         -2.48120       -2.30510       -1.65850
C         -3.25510       -0.99810       -1.92180
O         -2.21840       -0.23350       -1.23780
H          1.51060        1.28910       -0.44600
H          1.38020        0.02210       -1.67880
H         -0.01120        1.06760       -1.33380
H          1.26100       -0.90550        0.62940
H         -0.72440       -0.47750        2.07180
H          0.24360        0.98570        1.81920
H         -1.28250        0.76820        0.93810
H         -2.09850       -2.82170       -2.54020
H         -2.96670       -3.02550       -0.99810
H         -3.34460       -0.68930       -2.96630
H         -4.21750       -0.89390       -1.41450
