16
gdb 19438	4.03232	1.95565	1.62885	0.6416	63.67	-0.2576	0.0751	0.3327	813.9176	0.13137	-383.711322	-383.704841	-383.703897	-383.741849	25.494
C         -0.00640        1.46220       -0.00550
O          1.18280        0.66460       -0.06860
C         -0.08590        0.00130        0.01940
C         -0.38830       -0.83980        1.25860
C         -0.28000       -2.31210        0.77980
C         -0.56210       -2.23840       -0.71030
O         -1.72850       -1.46760       -1.03300
C         -0.44110       -0.84750       -1.16810
H         -0.14320        2.02170        0.91920
H         -0.25430        2.00670       -0.91590
H          0.30510       -0.60020        2.06700
H         -1.40350       -0.62960        1.60430
H          0.73220       -2.70510        0.92910
H         -0.97360       -2.97590        1.30390
H         -0.36980       -3.08680       -1.36180
H         -0.13950       -0.55140       -2.16880
