15
gdb 20914	3.42065	1.9412	1.34245	2.4768	62.86	-0.2183	0.0159	0.2343	903.0095	0.12061	-396.02913	-396.021666	-396.020722	-396.061493	26.799
C          0.12700        1.59080       -0.03900
C         -0.01410        0.07700        0.11890
N          0.68330       -0.43420        1.28180
N          2.05950       -0.44140        1.34600
C          2.32860       -0.94850        2.50740
N          1.19300       -1.27010        3.20290
C          0.08060       -0.93980        2.41730
O         -1.09840       -1.07000        2.67540
H          1.18030        1.87120       -0.12370
H         -0.39320        1.92400       -0.94210
H         -0.30380        2.11390        0.81960
H         -1.05930       -0.21080        0.25840
H          0.36900       -0.43980       -0.76740
H          3.32700       -1.10290        2.88460
H          1.11900       -1.67700        4.11860
