18
gdb 14344	4.57546	1.67222	1.44808	1.3458	75.06	-0.2261	0.0101	0.2362	923.4183	0.154437	-347.781524	-347.774376	-347.773432	-347.812743	27.962
C          0.07360        1.52820       -0.04010
C         -0.03150        0.01150        0.07360
O          0.53440       -0.59170       -1.11820
C          1.28960       -1.71390       -0.71830
C          2.86230       -1.78870       -0.78450
C          2.84930       -2.22450        0.73230
C          1.46870       -1.60520        0.75980
C          0.77970       -0.57310        1.22850
H          1.12210        1.84010       -0.06150
H         -0.40800        1.86740       -0.96150
H         -0.42200        2.01420        0.80680
H         -1.09710       -0.26820        0.12930
H          0.84010       -2.64340       -1.09680
H          3.30310       -2.48650       -1.50030
H          3.28990       -0.79230       -0.90820
H          2.84710       -3.31410        0.83340
H          3.60480       -1.80560        1.39890
H          0.85370       -0.08560        2.19270
