17
gdb 6964	2.63678	2.258	1.63586	0.9498	63.63	-0.2204	-0.0272	0.1933	852.7331	0.142186	-401.015967	-401.007988	-401.007043	-401.048016	30.114
C         -0.31720        1.58520        0.06300
C          0.11350        0.13410       -0.04550
O         -1.01180       -0.75610       -0.13500
C          1.03850       -0.24080       -1.20820
N          1.75390       -1.46710       -0.80160
C          2.01450       -1.30240        0.63340
C          0.92050       -0.37560        1.17630
O          0.67200       -0.11840        2.32660
H          0.54530        2.25840        0.02720
H         -0.99670        1.84180       -0.75480
H         -0.82890        1.75330        1.01660
H         -1.50470       -0.67910        0.69110
H          0.48380       -0.40640       -2.13400
H          1.76670        0.56190       -1.37840
H          1.10700       -2.24170       -0.91460
H          2.04780       -2.25380        1.16910
H          2.98400       -0.80730        0.79250
