20
gdb 8077	3.5219	2.13578	1.705	0.1782	79.27	-0.2294	0.0245	0.254	858.1035	0.179164	-311.87538	-311.868437	-311.867493	-311.905747	29.106
C         -0.04960        1.54620       -0.01220
C          0.02640        0.03090       -0.00140
C          1.08450       -0.69820       -0.89440
C          1.08600       -1.81440        0.18900
C          0.69970       -0.70240        1.20590
C         -0.09790       -2.77310       -0.02980
C         -1.36600       -1.98310       -0.26050
C         -1.31050       -0.65140       -0.24770
H          0.93400        1.99200        0.16870
H         -0.41440        1.91750       -0.97740
H         -0.73290        1.91400        0.76250
H          0.79100       -0.96090       -1.91430
H          2.03590       -0.15740       -0.90910
H          2.01630       -2.36180        0.35840
H          1.58380       -0.16230        1.55900
H          0.06390       -0.96890        2.05450
H          0.10000       -3.43400       -0.88590
H         -0.21590       -3.43750        0.83840
H         -2.29530       -2.51910       -0.43180
H         -2.19140       -0.03510       -0.40780
