13
gdb 3734	7.2626	2.01943	1.77465	5.837	54.5	-0.2805	-0.0133	0.2672	709.8487	0.103318	-336.802659	-336.796362	-336.795418	-336.833664	21.645
C          0.15110        1.53610        0.15920
C         -0.11190        0.05180       -0.09150
N          0.66680       -0.46780       -1.20960
C          1.80090       -1.18950       -1.23710
N          2.15790       -1.38740       -2.48750
N          1.21100       -0.76300       -3.23630
N          0.31600       -0.20860       -2.48690
H          1.20100        1.71300        0.40930
H         -0.09770        2.12180       -0.72880
H         -0.46610        1.88530        0.99170
H          0.14240       -0.55100        0.78440
H         -1.16460       -0.12380       -0.32570
H          2.31430       -1.54470       -0.35850
