10
gdb 3813	9.47943	2.00069	1.65202	2.1234	55.88	-0.2709	-0.0473	0.2236	670.21	0.070106	-318.390876	-318.385536	-318.384592	-318.420044	19.122
N          0.14150       -1.13800       -0.00540
C          0.02430        0.01430        0.00250
C         -0.09710        1.42290        0.01190
C         -1.21010        2.24980        0.03120
C         -0.67840        3.55100        0.03140
N          0.65550        3.54300        0.01380
N          0.98850        2.25120        0.00230
H         -2.24170        1.94030        0.04300
H         -1.20800        4.49150        0.04360
H          1.95970        1.98350       -0.01200
