12
gdb 21098	7.51774	1.34345	1.14807	5.4483	59.57	-0.2701	-0.0713	0.1988	962.5145	0.084221	-410.831464	-410.82444	-410.823496	-410.863369	23.506
C          0.00760        1.43910        0.04350
N         -0.02750       -0.01190        0.03290
N         -0.22080       -0.71790       -1.08830
N         -0.19510       -1.97130       -0.74020
C          0.01610       -1.98770        0.60190
C          0.12250       -3.18990        1.45430
O          0.03200       -4.31940        1.04810
N          0.12460       -0.75700        1.10780
H          0.97650        1.78010        0.41290
H         -0.14580        1.77260       -0.98180
H         -0.78530        1.82070        0.68940
H          0.29670       -2.94820        2.52290
