18
gdb 11508	4.84953	1.09663	0.95356	4.0902	72.94	-0.2511	0.0394	0.2904	1210.774	0.153481	-343.969668	-343.961069	-343.960125	-344.003195	30.826
C          0.09870        1.59520       -0.05220
C          0.08880        0.05580       -0.00730
C          0.73790       -0.60360       -1.24590
N         -0.01290       -0.27550       -2.44910
C          0.53610        0.76250       -3.32120
C          0.60450       -0.67030       -3.71180
C          0.75420       -0.43010        1.20570
N          1.29270       -0.81200        2.15460
H          1.12180        1.97770       -0.11680
H         -0.46260        1.94060       -0.92220
H         -0.36290        2.01120        0.84650
H         -0.95240       -0.28640        0.02910
H          1.79940       -0.30540       -1.30770
H          0.71360       -1.69050       -1.11500
H         -0.19050        1.42640       -3.78040
H          1.46670        1.24110       -3.02090
H          1.58150       -1.14930       -3.67340
H         -0.07170       -1.07420       -4.45940
