16
gdb 14476	2.86609	2.35946	1.98121	1.6692	63.96	-0.2284	0.0663	0.2947	765.3187	0.129994	-383.677101	-383.669975	-383.669031	-383.707925	28.174
O         -0.12080        1.43110        0.06190
C          0.02600        0.07230        0.03460
C          0.04340       -0.97620       -1.05050
C          1.29810       -1.64250       -0.49030
C          0.92990       -0.96010        0.86090
O          1.89590       -0.54920        1.76470
C         -0.38270       -1.67140        1.30260
C         -1.02130       -0.99110        0.09190
H          0.67600        1.83240       -0.30410
H         -0.27040       -0.88410       -2.08190
H          1.36200       -2.73720       -0.49900
H          2.20990       -1.21010       -0.91210
H          2.25830       -1.32710        2.20390
H         -0.37370       -2.76690        1.35480
H         -0.75950       -1.25010        2.23850
H         -2.07160       -0.89090       -0.14690
