17
gdb 20969	4.63578	1.56566	1.20037	2.4908	71.2	-0.1839	0.0308	0.2147	991.0561	0.14389	-360.04504	-360.037111	-360.036167	-360.077624	28.972
C          0.14560        1.41600        0.01560
N         -0.30200        0.03380        0.02240
C          0.00870       -0.70470        1.22980
C         -0.13670       -0.67140       -1.17200
C          0.03370       -2.03810       -1.34090
N          0.09010       -2.24880       -2.68640
N         -0.01270       -1.12600       -3.40540
C         -0.14920       -0.16120       -2.49810
H          1.23760        1.52200       -0.10610
H         -0.34130        1.96660       -0.79330
H         -0.14370        1.89030        0.95750
H         -0.22870       -0.09030        2.10230
H         -0.60610       -1.60930        1.28140
H          1.06920       -1.00790        1.29690
H          0.11560       -2.84830       -0.63680
H          0.20600       -3.12610       -3.16270
H         -0.25040        0.86230       -2.82360
