14
gdb 4513	3.68614	1.71952	1.17988	1.6675	60.16	-0.1651	0.0685	0.2336	943.548	0.106947	-415.874637	-415.866146	-415.865201	-415.907162	30.663
N          0.19430        1.43390        0.05320
C          0.01510        0.03710       -0.00980
C         -1.08420       -0.78380       -0.04330
O         -2.37140       -0.31680       -0.01750
C         -0.64830       -2.14580       -0.10680
C          0.72990       -2.09800       -0.10950
O          1.68400       -3.06460       -0.15680
N          1.13150       -0.80670       -0.05210
H         -0.22250        1.83160        0.88900
H         -0.22800        1.90580       -0.74030
H         -2.96660       -1.07030       -0.05000
H         -1.26350       -3.03240       -0.14500
H          1.24400       -3.91890       -0.19350
H          2.08360       -0.48510       -0.04080
