18
gdb 16502	3.70926	2.23567	1.931	1.8497	70.15	-0.2456	0.0926	0.3382	780.2289	0.155465	-347.765802	-347.759395	-347.758451	-347.795849	26.662
C         -0.05220        1.47740        0.03840
C          0.07360       -0.01440       -0.03300
O         -0.55860       -0.78160        1.01330
C          0.86380       -0.89850        0.82600
C          1.31880       -1.98380       -0.17530
C          0.02080       -2.24830       -0.98840
C          0.19980       -0.75930       -1.38990
C          1.74150       -1.05850       -1.37140
H          0.69550        1.96050       -0.60010
H         -1.04110        1.80140       -0.30540
H          0.08260        1.82930        1.06440
H          1.48450       -0.57610        1.65610
H          1.95190       -2.79010        0.19390
H          0.20370       -2.91880       -1.82990
H         -0.87870       -2.53010       -0.44510
H         -0.29910       -0.32160       -2.25490
H          2.42070       -0.22710       -1.15670
H          2.08740       -1.61230       -2.24810
