17
gdb 1562	4.53294	1.50957	1.20471	1.6698	61.77	-0.2529	-0.0225	0.2304	993.6912	0.14543	-346.855971	-346.84725	-346.846306	-346.88952	29.323
C          0.12310        1.34000        0.00720
O         -0.04140       -0.05750       -0.02940
C          0.74450       -0.67490       -1.02660
C          0.47210       -2.17490       -0.98250
C         -0.99690       -2.52570       -1.28270
C          1.39000       -2.93620       -1.91370
O          2.23360       -2.43970       -2.61710
H          1.16680        1.62280        0.21610
H         -0.17460        1.81140       -0.94280
H         -0.51420        1.72410        0.80750
H          0.49730       -0.27480       -2.02390
H          1.81470       -0.47780       -0.86140
H          0.69840       -2.53660        0.03290
H         -1.17290       -3.60340       -1.20830
H         -1.64760       -2.01620       -0.57010
H         -1.27610       -2.20420       -2.29190
H          1.22310       -4.03890       -1.91380
