22
gdb 13625	3.41789	1.16003	1.04347	1.6933	78.62	-0.2561	0.0835	0.3396	1269.6531	0.197971	-350.200037	-350.190109	-350.189165	-350.235042	35.77
C          1.31400        1.15690       -0.72310
C          0.83540       -0.29780       -0.73540
C         -0.49660       -0.54040        0.00310
C         -1.69050        0.16190       -0.66110
C         -0.76300       -2.03000        0.08210
O          0.07810       -2.81450        0.93610
C         -1.32020       -2.74410        1.24470
C         -1.71250       -2.10710        2.55360
H          2.28950        1.24930       -1.21070
H          0.62230        1.82330       -1.24780
H          1.42060        1.52870        0.30230
H          0.73690       -0.64510       -1.77340
H          1.59690       -0.93330       -0.26950
H         -0.38440       -0.15480        1.02330
H         -2.61780       -0.02900       -0.11140
H         -1.54670        1.24470       -0.70300
H         -1.83310       -0.19440       -1.68850
H         -0.93250       -2.49140       -0.89610
H         -1.85380       -3.67310        1.02880
H         -1.17090       -1.17700        2.73510
H         -2.78750       -1.89610        2.56820
H         -1.49620       -2.78990        3.38210
