12
gdb 1229	7.47355	1.52448	1.31547	6.769	48.68	-0.2663	-0.0015	0.2649	843.4793	0.088725	-397.697891	-397.690381	-397.689437	-397.730237	25.122
N         -0.00350        1.12170        0.04060
C         -0.27850       -0.20640        0.14410
O          0.47910       -1.01900        0.62980
C         -1.68210       -0.61140       -0.33370
O         -1.69520       -1.94940       -0.78850
C         -1.63680       -2.92080        0.15880
O         -1.56170       -4.07460       -0.12850
H          0.90440        1.44250        0.33710
H         -0.58080        1.75050       -0.49020
H         -2.38120       -0.46410        0.50180
H         -2.02580        0.00170       -1.17030
H         -1.70060       -2.52470        1.18680
