14
gdb 317	6.22463	3.60361	3.5536	1.8191	53.68	-0.2307	0.1012	0.3319	482.6135	0.119521	-270.370102	-270.364657	-270.363713	-270.398537	21.01
C         -0.06980        1.44280        0.00980
C          0.07640       -0.04630       -0.00230
C          0.62600       -0.98610       -1.11270
C         -0.03930       -1.83810       -0.01040
C          0.67450       -0.99900        1.07140
O         -1.16390       -0.87640        0.02030
H          0.91500        1.92030       -0.00920
H         -0.63550        1.78000       -0.86410
H         -0.59610        1.76940        0.91190
H          0.08400       -0.94710       -2.05880
H          1.70980       -1.05520       -1.24040
H         -0.28850       -2.89890       -0.01120
H          1.76300       -1.06940        1.14990
H          0.17520       -0.97150        2.04100
