14
gdb 21575	5.48076	1.31172	1.0898	2.6936	61.18	-0.2142	0.0135	0.2277	1030.8763	0.107472	-415.846631	-415.838945	-415.838001	-415.878909	27.837
N          0.11160        1.36610        0.17230
C         -0.06900        0.01080        0.03400
C         -1.13510       -0.82150        0.23160
C         -0.58820       -2.10520       -0.02750
C         -1.28270       -3.42780        0.07060
O         -2.58450       -3.28700       -0.48070
N          0.68060       -2.06290       -0.35680
O          1.01890       -0.69200       -0.30910
H          0.89210        1.73290       -0.35410
H         -0.72680        1.91560        0.06000
H         -2.14600       -0.57120        0.50040
H         -0.68260       -4.18160       -0.45710
H         -1.33490       -3.72590        1.13020
H         -3.05260       -4.11590       -0.34340
