16
gdb 9192	8.01361	0.83026	0.7629	1.7493	67.69	-0.2633	0.0105	0.2738	1434.3561	0.127409	-383.743667	-383.734285	-383.733341	-383.779721	31.504
C         -0.06420        1.35730       -0.07750
O          0.02640       -0.06940        0.03300
C          0.67110       -0.52390        1.12460
O          1.15010        0.19320        1.96760
C          0.70520       -2.03820        1.13610
C          1.44200       -2.58640        2.36860
C          1.47750       -4.04330        2.38680
C          1.49390       -5.24500        2.37910
H          0.93200        1.80490       -0.11690
H         -0.60630        1.54900       -1.00340
H         -0.60310        1.77660        0.77590
H         -0.32400       -2.41050        1.09860
H          1.17910       -2.38380        0.21130
H          2.46080       -2.18370        2.38990
H          0.95850       -2.20920        3.27650
H          1.51780       -6.30630        2.38700
