13
gdb 5339	5.87752	1.55792	1.2315	1.9198	76.7	-0.2448	-0.0432	0.2017	912.7194	0.097476	-324.3541	-324.347739	-324.346795	-324.38451	24.343
C          0.00450       -1.20820       -0.00370
C          0.00710       -0.00400        0.00270
C          0.00220        1.41840        0.01050
C         -1.20800        2.13440        0.03030
N         -1.28700        3.46210        0.03850
C         -0.14050        4.14920        0.02710
C          1.11540        3.54720        0.00740
C          1.19030        2.16200       -0.00110
H          0.00220       -2.27010       -0.00910
H         -2.14770        1.58840        0.03970
H         -0.23130        5.23260        0.03420
H          2.01380        4.15390       -0.00120
H          2.14590        1.65010       -0.01650
