15
gdb 14902	4.99516	1.49755	1.22299	2.3799	67.62	-0.2535	0.0152	0.2687	951.662	0.119761	-362.63624	-362.629097	-362.628153	-362.66773	26.774
C         -0.04650       -1.20960       -0.05220
C          0.01750       -0.01080       -0.01510
C          0.04590        1.45070        0.05730
C         -0.72160        1.96270        1.29320
C         -0.47860        3.45860        1.42760
O          0.92610        3.75550        1.46790
C          1.71980        2.96170        0.71270
N          1.43520        1.93420        0.03190
H         -0.08660       -2.26980       -0.09760
H         -0.44910        1.83690       -0.84640
H         -1.79210        1.75660        1.20460
H         -0.35410        1.44330        2.18390
H         -0.92030        4.00510        0.58430
H         -0.89520        3.86170        2.35330
H          2.74440        3.32790        0.74980
