22
gdb 19302	6.1018	0.80504	0.8011	0.1708	82.53	-0.2631	0.0955	0.3586	1528.7728	0.200638	-313.046695	-313.03796	-313.037015	-313.080771	32.742
C         -0.05070        1.52680        0.19640
C          0.03720       -0.00680        0.18810
C         -1.31770       -0.68240        0.19890
C         -2.06350       -0.91710       -1.09190
C         -1.48320       -2.08410       -0.32890
C          1.30420        2.20240        0.18960
C          2.02660        2.45020       -1.11210
C          1.46010        3.60940       -0.32690
H         -0.62770        1.86080       -0.67610
H         -0.61990        1.85160        1.07880
H          0.59850       -0.33220       -0.69790
H          0.62210       -0.34030        1.05680
H         -1.93590       -0.42740        1.05710
H         -3.14080       -0.79290       -1.10320
H         -1.57480       -0.62650       -2.01680
H         -0.60800       -2.57440       -0.74330
H         -2.16480       -2.75450        0.18310
H          1.93790        1.93880        1.03380
H          3.10350        2.32630       -1.14420
H          1.52120        2.16900       -2.03080
H          0.57770        4.10370       -0.72040
H          2.15100        4.27470        0.17950
