13
gdb 20337	5.75653	2.10883	1.77522	5.1866	63.19	-0.2508	-0.0139	0.2369	712.158	0.098123	-357.564652	-357.559234	-357.55829	-357.594114	21.221
C         -0.07600        1.40580       -0.11050
C          1.29900        0.83520        0.10590
C          0.08010       -0.08920        0.14130
C          0.63130       -0.70880       -1.13320
C          0.62440       -1.21460       -2.41030
N          1.71630       -0.67830       -3.05730
N          2.34620        0.17890       -2.29280
N          1.72020        0.09520       -1.10200
H         -0.47280        1.98410        0.72010
H         -0.36250        1.76020       -1.09510
H          1.99970        1.11200        0.87980
H         -0.34230       -0.59940        0.99380
H         -0.02040       -1.92020       -2.90600
