12
gdb 7034	8.38528	1.00157	0.8947	2.4783	56.69	-0.2767	-0.0423	0.2344	1176.9144	0.082894	-451.851556	-451.84366	-451.842716	-451.884823	26.03
N         -0.32110        1.36540        0.01430
C         -0.05200        0.13880        0.00390
O         -1.10630       -0.74470        0.00950
C         -0.80260       -2.08810       -0.00240
O          0.29590       -2.55680       -0.01670
N         -2.01220       -2.76540        0.00660
C         -2.19300       -4.14840        0.00070
O         -1.32710       -4.97540       -0.01280
H          0.54040        1.90920        0.00830
H          0.91570       -0.36280       -0.00990
H         -2.83790       -2.18400        0.01900
H         -3.27470       -4.38520        0.01160
