22
gdb 12811	3.14167	1.88617	1.49822	0.1701	81.2	-0.2525	0.0846	0.337	966.9501	0.202962	-313.084929	-313.077248	-313.076304	-313.116259	31.315
C         -0.03340        1.53050        0.00810
C         -0.01850        0.01450        0.02470
C         -0.85690       -0.67340        1.07270
C          0.65340       -0.67950        1.19750
C          1.43250       -1.98340        1.01340
C          1.71920       -2.32620       -0.45810
C          0.48700       -2.10290       -1.34120
C          0.10200       -0.61650       -1.35760
H          0.88770        1.93220       -0.43140
H         -0.87480        1.91110       -0.58430
H         -0.12760        1.94150        1.01840
H         -1.43180       -0.05480        1.75460
H         -1.33860       -1.61350        0.82060
H          1.05450       -0.01690        1.95960
H          2.37930       -1.91950        1.56030
H          0.87530       -2.81010        1.47320
H          2.53480       -1.69130       -0.83000
H          2.06960       -3.36150       -0.53450
H          0.68400       -2.43580       -2.36610
H         -0.34850       -2.71490       -0.97580
H         -0.83340       -0.46760       -1.91340
H          0.87670       -0.07020       -1.91470
