13
gdb 21858	3.94702	1.90455	1.28466	3.4887	66.	-0.2072	-0.0483	0.1589	869.1387	0.097719	-394.790343	-394.783767	-394.782823	-394.820915	25.37
O         -0.01080        1.36070        0.00810
C         -0.01960        0.00630        0.00090
C         -1.19050       -0.67450        0.00390
C         -1.19690       -2.12170       -0.00380
N         -2.27770       -2.81420       -0.00140
N          0.10310       -2.67110       -0.01400
N          1.27020       -2.02100       -0.01710
C          1.22260       -0.72610       -0.00990
H          0.89750        1.68070        0.00470
H         -2.14620       -0.16800        0.01200
H         -2.08520       -3.81690       -0.00780
H          0.19620       -3.67620       -0.01990
H          2.17930       -0.21080       -0.01260
