21
gdb 13817	4.23829	1.16782	1.05991	2.7236	75.46	-0.2477	0.0673	0.315	1221.5718	0.188187	-366.246244	-366.237004	-366.23606	-366.280194	34.343
C         -0.30000        1.50950        0.23400
C          0.30310        0.16220       -0.17820
C          0.93940       -0.55770        0.99150
N          0.05150       -1.24800        1.95110
C          1.01370       -2.03430        1.15680
C          0.37290       -3.05530        0.21190
C          0.48520       -4.47130        0.78880
O         -0.98090       -2.72710       -0.04440
H          0.45950        2.17700        0.65760
H         -0.74970        2.01960       -0.62310
H         -1.07870        1.36740        0.98990
H         -0.46160       -0.47860       -0.62310
H          1.07410        0.31770       -0.94430
H          1.76980       -0.01060        1.44080
H          0.35770       -1.12750        2.91090
H          1.89550       -2.40970        1.67350
H          0.89730       -3.02410       -0.75310
H          1.53220       -4.77850        0.89270
H          0.01040       -4.52240        1.77490
H         -0.02100       -5.18100        0.12950
H         -1.27280       -2.24580        0.74720
