18
gdb 13854	4.10016	1.42601	1.20779	1.9492	67.72	-0.2469	-0.0157	0.2312	1031.2574	0.153797	-384.965944	-384.95763	-384.956685	-385.000404	29.208
C         -0.23000        1.43790        0.08070
C         -0.06980       -0.07140        0.07700
O         -0.09070       -0.71690        1.10000
C          0.07820       -0.72460       -1.29430
C          0.63190       -2.16840       -1.26500
C         -0.44400       -2.99320       -2.00430
O         -1.18750       -2.05920       -2.77910
C         -1.31390       -0.90630       -1.97750
H          0.68580        1.90910       -0.29520
H         -1.03940        1.74420       -0.59190
H         -0.43390        1.79130        1.09200
H          0.69120       -0.07940       -1.93060
H          1.59400       -2.22060       -1.77920
H          0.76750       -2.50420       -0.23560
H         -0.03850       -3.74350       -2.68680
H         -1.10540       -3.49890       -1.28360
H         -2.09480       -1.04540       -1.21030
H         -1.59970       -0.07080       -2.62090
