14
gdb 5146	6.26334	1.32101	1.0982	3.281	67.76	-0.2222	0.0311	0.2533	1012.4001	0.10817	-341.589856	-341.582651	-341.581707	-341.621857	26.606
C         -0.49260       -0.71420       -1.04900
C         -0.12480        0.09350       -0.23870
C          0.32520        1.07500        0.74220
C          1.56080        1.82680        0.32750
C          2.29990        1.71310       -0.81990
N          3.31940        2.63170       -0.68660
C          3.15250        3.24820        0.51610
N          2.10220        2.78750        1.15430
H         -0.82690       -1.43090       -1.75730
H         -0.48190        1.79250        0.94190
H          0.51340        0.57610        1.70230
H          2.19590        1.08470       -1.68730
H          4.04910        2.80970       -1.35560
H          3.82250        4.01800        0.86910
