21
gdb 10523	2.78488	1.38988	1.0875	2.189	74.53	-0.2459	0.0658	0.3117	1186.9501	0.188419	-366.239046	-366.229719	-366.228775	-366.273319	34.173
C         -1.71140        1.74430        0.87460
C         -1.08280        0.40860        0.47010
C         -2.12320       -0.71810        0.36250
C         -1.55890       -2.07520       -0.02410
C         -0.57230       -2.72320        0.93960
O          0.72780       -2.17690        0.80460
C         -2.35840       -2.95700       -0.91300
N         -1.14130       -2.29860       -1.42800
H         -0.95800        2.53560        0.93630
H         -2.47160        2.06410        0.15240
H         -2.19850        1.67280        1.85380
H         -0.57240        0.52010       -0.49560
H         -0.30430        0.12200        1.18290
H         -2.64920       -0.81660        1.32250
H         -2.88940       -0.43180       -0.37180
H         -0.87920       -2.55270        1.97700
H         -0.55840       -3.81040        0.76970
H          0.92080       -2.22340       -0.14090
H         -2.28820       -4.03750       -0.82020
H         -3.32460       -2.59660       -1.25680
H         -1.40140       -1.49670       -1.99740
