14
gdb 3008	6.35605	1.75381	1.45297	3.8156	55.32	-0.2609	-0.0061	0.2548	812.7204	0.112743	-361.704371	-361.697154	-361.69621	-361.736093	25.069
O          0.09940        1.30310        0.20390
C          0.05360       -0.05010       -0.14020
C         -1.38900       -0.54590       -0.16200
O         -2.30610        0.21680        0.07100
N         -1.57120       -1.85930       -0.55010
C         -1.10700       -3.03350        0.16900
C         -2.56990       -2.73280        0.01880
H         -0.83030        1.56830        0.29350
H          0.49510       -0.23390       -1.13220
H          0.62950       -0.65810        0.57570
H         -0.64310       -3.80820       -0.43450
H         -0.66200       -2.88400        1.14970
H         -3.10800       -2.36440        0.88770
H         -3.16430       -3.29780       -0.69270
