16
gdb 5082	3.28718	1.97365	1.25091	0.599	67.43	-0.1728	0.0683	0.2411	940.7527	0.131393	-379.953215	-379.944968	-379.944024	-379.985305	30.879
C         -0.11450        1.50690        0.03910
C         -0.03920        0.01210        0.00680
C         -0.07310       -0.79190       -1.10470
N          0.02340       -2.11610       -0.69170
C          0.11710       -2.14480        0.66420
O          0.22290       -3.31320        1.33250
C          0.08320       -0.85860        1.14600
N          0.16510       -0.60090        2.54890
H          0.77690        1.95300        0.49850
H         -0.20440        1.91920       -0.97000
H         -0.97680        1.86220        0.61770
H         -0.15690       -0.54640       -2.15070
H          0.02570       -2.92750       -1.28330
H          0.27270       -3.05350        2.26490
H         -0.65420       -0.10820        2.89300
H          0.96840       -0.02460        2.78300
