18
gdb 6576	3.83864	1.6634	1.46394	3.0926	67.91	-0.2422	0.0717	0.3139	933.163	0.150967	-384.909452	-384.901086	-384.900142	-384.941485	32.093
C          0.07320        1.54390        0.00400
C         -0.08540        0.06240        0.10810
C         -1.36730       -0.78060       -0.01170
C         -0.71380       -1.81170        0.99640
C         -1.39400       -1.82330        2.36250
O         -0.47120       -3.11720        0.52450
C          0.55240       -0.94330        0.98110
O          0.97170       -0.77800       -0.37570
H          1.08820        1.83930        0.28240
H         -0.11090        1.88270       -1.02190
H         -0.63700        2.05950        0.65870
H         -2.26840       -0.30340        0.38310
H         -1.55090       -1.16960       -1.01530
H         -2.39340       -2.26950        2.29150
H         -0.80490       -2.41270        3.07230
H         -1.51130       -0.81160        2.76300
H         -1.30240       -3.60350        0.54700
H          1.31010       -0.85180        1.75320
