17
gdb 14961	4.52029	1.53181	1.2124	1.4367	67.66	-0.2475	0.0164	0.2639	997.2566	0.143251	-401.006678	-400.998987	-400.998042	-401.039067	27.853
C         -0.14490        1.46040       -0.02980
N         -0.09790        0.00820       -0.05590
C          0.59540       -0.58900       -0.92390
C          0.62520       -2.09740       -1.01860
C          2.00310       -2.59700       -1.45820
O          2.41200       -1.88120       -2.61950
C          2.51920       -0.52720       -2.33690
O          1.29060        0.06740       -1.91490
H          0.64050        1.94810       -0.61700
H         -1.11740        1.79630       -0.41040
H         -0.08030        1.79480        1.01070
H          0.31960       -2.52020       -0.06020
H         -0.10790       -2.40110       -1.77610
H          2.74460       -2.45780       -0.65480
H          1.98300       -3.65470       -1.72850
H          3.27380       -0.35240       -1.55060
H          2.80180       -0.01340       -3.25690
