13
gdb 19100	5.33399	2.16702	2.05622	1.0108	58.95	-0.2457	-0.0242	0.2215	664.3883	0.097357	-361.382008	-361.376831	-361.375887	-361.411233	20.889
O          0.00850       -0.02810        0.04470
C         -0.01150        1.16440        0.06430
C         -1.10230        2.25650       -0.02380
C         -0.78220        3.23440        1.11980
C          0.71810        3.25980        1.09870
C          1.03880        2.29280       -0.05400
C         -0.05720        3.14950       -0.78760
N         -0.06060        4.24870        0.28650
H         -2.12830        2.07130       -0.32620
H         -1.39390        3.50770        1.96980
H          1.34390        3.55410        1.93120
H          2.06160        2.14240       -0.38530
H         -0.07610        3.38620       -1.84740
