15
gdb 7065	6.73559	0.91899	0.85679	4.6762	67.89	-0.2742	0.0135	0.2877	1274.2599	0.116147	-362.638458	-362.629471	-362.628527	-362.672509	31.429
O         -0.17410        1.40500        0.03350
C         -0.03050        0.00530        0.01050
C          0.66890       -0.50090       -1.27100
C         -0.01580       -0.09730       -2.49070
C         -0.58800        0.23050       -3.49440
C          0.72560       -0.51260        1.25820
C          0.09150       -0.10360        2.50810
N         -0.41110        0.20610        3.50090
H          0.68840        1.81200       -0.10850
H         -1.05230       -0.38600        0.03300
H          1.70330       -0.12560       -1.28110
H          0.74470       -1.59530       -1.23110
H         -1.09450        0.52380       -4.38060
H          0.78660       -1.60680        1.23590
H          1.75690       -0.13670        1.24630
