20
gdb 16242	2.69542	2.29373	1.45337	1.6066	74.6	-0.2199	0.0864	0.3063	931.0856	0.177563	-349.000983	-348.993044	-348.9921	-349.033666	30.589
C         -0.39150        1.41960        0.01110
C          0.00380       -0.05300       -0.03730
C          1.08540       -0.39790       -1.07720
C          1.59200       -1.75300       -0.57470
O          1.42070       -1.74550        0.84370
C          0.63550       -0.63080        1.22510
C          1.15750        0.19190        2.37440
C         -0.04060       -0.73000        2.55250
H          0.48140        2.05990        0.17360
H         -0.85820        1.72330       -0.93120
H         -1.11150        1.61900        0.81230
H         -0.89100       -0.65090       -0.26230
H          0.70560       -0.43940       -2.10130
H          1.88540        0.35050       -1.04090
H          1.00820       -2.57940       -1.00630
H          2.64840       -1.93170       -0.80380
H          2.09800       -0.13120        2.80610
H          0.98960        1.26310        2.39260
H         -1.02210       -0.28150        2.67280
H          0.11070       -1.64720        3.11050
