16
gdb 18677	3.17263	2.27164	1.51105	1.9534	64.99	-0.2394	-0.0165	0.2229	830.0429	0.131853	-383.747243	-383.740562	-383.739618	-383.778151	25.926
O          0.01410       -0.03460       -0.08650
C         -0.01790        1.17300       -0.00080
C         -1.32180        1.95940        0.03750
C         -1.18470        3.22440       -0.82110
O         -0.17270        4.07220       -0.29810
C          1.10110        3.50030       -0.23770
C          1.54620        2.99530        1.09200
C          1.22460        1.99930       -0.02780
H         -2.12690        1.30700       -0.31040
H         -1.54850        2.26070        1.06770
H         -0.96740        2.95460       -1.86580
H         -2.10550        3.81330       -0.80820
H          1.82240        3.97610       -0.89820
H          2.58860        3.07760        1.37720
H          0.83610        3.08990        1.90530
H          2.07380        1.48530       -0.46330
