16
gdb 19475	4.86615	1.53347	1.46602	1.4295	64.14	-0.2346	0.0004	0.235	890.7261	0.13093	-383.676093	-383.669197	-383.668253	-383.707268	26.633
O         -0.09940        1.41160       -0.27140
C          0.00360        0.04340        0.10860
C         -1.39720       -0.53390        0.07200
C         -1.97410       -0.83480       -1.35390
O         -1.13500       -2.04050       -1.37530
C         -1.50580       -2.09580        0.04260
C         -3.03110       -2.29050       -0.04150
C         -3.35160       -1.42380       -1.00460
H          0.78840        1.77870       -0.30990
H          0.65080       -0.52090       -0.57490
H          0.41270       -0.05480        1.12800
H         -2.05920       -0.00450        0.76140
H         -1.84670       -0.17220       -2.20760
H         -0.89480       -2.76510        0.64800
H         -3.63950       -2.95850        0.54960
H         -4.30450       -1.16410       -1.44100
