16
gdb 10889	3.08599	2.02951	1.54573	4.5451	66.73	-0.2448	0.001	0.2458	865.3176	0.129805	-379.876088	-379.868269	-379.867325	-379.907937	29.201
C         -0.05180        1.52480       -0.00300
C         -0.03150        0.02690       -0.04380
C         -0.78830       -0.84000        0.87250
N          0.69980       -0.80770        1.02760
C          1.16740       -1.68170       -0.02810
N          1.83480       -2.73610        0.10500
C          0.60320       -0.81980       -1.16100
O         -0.19290       -1.50620       -2.09260
H          0.90670        1.94450       -0.32660
H         -0.83490        1.92140       -0.65990
H         -0.25220        1.88150        1.01110
H         -1.29880       -0.36680        1.70520
H         -1.25010       -1.75460        0.51110
H          2.02970       -3.14610       -0.81090
H          1.41330       -0.25770       -1.64960
H         -0.39700       -0.91480       -2.82420
