16
gdb 17397	4.87983	1.64306	1.53308	2.201	63.56	-0.2467	0.0702	0.3169	850.9163	0.130527	-383.668322	-383.661592	-383.660648	-383.699602	25.376
C          0.04090        1.51680       -0.15730
O          1.43760        1.55030        0.21500
C          1.43760        0.13940        0.50360
C          0.00200       -0.01470       -0.03260
C         -1.08540       -0.83520        0.73640
C         -1.30190       -1.65620       -0.54280
O         -1.65790       -0.73170       -1.57810
C         -0.26960       -0.89290       -1.26050
H         -0.58700        2.05360        0.56630
H         -0.13610        1.92590       -1.15860
H          2.22530       -0.39660       -0.04190
H          1.54910       -0.06350        1.57800
H         -0.65330       -1.41530        1.55700
H         -1.96040       -0.28670        1.09460
H         -1.63500       -2.68070       -0.65700
H          0.40170       -1.16620       -2.06760
