19
gdb 7355	4.30678	1.0541	0.86509	2.1081	70.16	-0.2356	0.0335	0.2691	1327.2339	0.163462	-402.22168	-402.21154	-402.210596	-402.257463	34.267
C          0.02570        1.41980        0.07850
N         -0.00070       -0.03310        0.06930
C          1.29450       -0.67850        0.13200
C         -1.21060       -0.67830        0.00380
O         -2.26720       -0.06490       -0.04710
C         -1.19930       -2.20430       -0.00390
C         -2.61270       -2.76750       -0.07940
O         -2.49000       -4.18420       -0.08100
H          0.59330        1.80140       -0.78000
H         -0.99940        1.78180        0.02800
H          0.50260        1.79180        0.99440
H          1.82770       -0.39070        1.04830
H          1.20020       -1.76180        0.12140
H          1.91820       -0.38120       -0.72200
H         -0.62070       -2.58300       -0.85450
H         -0.71040       -2.59240        0.89740
H         -3.19950       -2.40900        0.77670
H         -3.10920       -2.39910       -0.98690
H         -3.37490       -4.55680       -0.12880
