18
gdb 13464	3.64845	1.12041	1.0483	2.0643	63.71	-0.2394	0.0538	0.2932	1173.192	0.152293	-422.040679	-422.031543	-422.030599	-422.074944	32.946
O          0.06970        1.34810        0.07110
C         -0.05620       -0.05820        0.21370
C         -1.41170       -0.58120       -0.27500
C         -1.50060       -2.08920       -0.18250
C         -1.86530       -2.75620        1.13450
O         -2.20910       -1.96010        2.22650
C         -2.83240       -2.80370       -0.01710
O         -4.00160       -2.06200        0.21200
H         -0.53880        1.75930        0.69300
H          0.75120       -0.49000       -0.38840
H          0.10130       -0.37750        1.25380
H         -2.20010       -0.12580        0.33420
H         -1.56590       -0.24530       -1.30820
H         -0.77750       -2.62680       -0.79230
H         -1.34360       -3.66400        1.42400
H         -3.13280       -1.70620        2.09220
H         -2.99380       -3.73970       -0.54850
H         -4.16300       -1.48850       -0.54410
