15
gdb 4878	4.75968	1.41827	1.16395	4.6702	63.9	-0.2115	0.027	0.2385	1014.3182	0.119364	-399.864771	-399.857186	-399.856242	-399.896973	27.53
C         -0.14920        1.57030       -0.03210
C          0.07490        0.04890        0.01110
C          0.85300       -0.46440       -1.14520
C          2.03330       -1.08810       -1.26440
N          2.23390       -1.31290       -2.62880
C          1.17120       -0.82370       -3.35200
O          0.97290       -0.82530       -4.53590
O          0.30790       -0.29160       -2.40850
H          0.80400        2.10670       -0.00650
H         -0.67390        1.85720       -0.94710
H         -0.74930        1.89390        0.82310
H          0.60780       -0.23270        0.92560
H         -0.89800       -0.45870        0.04460
H          2.74250       -1.39150       -0.51400
H          3.01720       -1.76370       -3.06600
