22
gdb 12634	3.26684	1.73723	1.30647	0.2157	82.93	-0.2318	0.0272	0.259	1038.5739	0.200665	-313.090451	-313.081917	-313.080972	-313.122727	33.689
C         -0.26830        1.56970       -0.04000
C          0.04930        0.07120       -0.00580
C          0.87870       -0.42990       -1.17090
C          1.69670       -1.41380       -0.80570
C          1.55650       -1.74180        0.66720
C          2.85280       -2.18470        1.35350
C          0.85390       -0.46010        1.22720
C          1.84520        0.57070        1.78410
H          0.63820        2.18000       -0.08750
H         -0.87300        1.80850       -0.92160
H         -0.83860        1.87860        0.84260
H         -0.91620       -0.46090       -0.02620
H          0.76020       -0.04520       -2.17890
H          2.35760       -1.96670       -1.46570
H          0.84380       -2.57800        0.75960
H          3.64500       -1.43690        1.25500
H          2.69650       -2.37370        2.42100
H          3.21970       -3.11450        0.90570
H          0.16470       -0.73340        2.03450
H          2.56800        0.89000        1.02580
H          1.32410        1.46200        2.14480
H          2.40650        0.16000        2.62800
