15
gdb 6357	5.46819	1.12988	0.94752	4.8697	60.41	-0.2552	-0.009	0.2463	1194.1913	0.116696	-437.007658	-436.998487	-436.997543	-437.042699	30.122
C         -0.12930        1.29490        0.15910
O          0.00820       -0.11040       -0.07980
C          0.69540       -0.42340       -1.20760
O          1.16700        0.36980       -1.97150
N          0.73940       -1.81210       -1.29430
C          1.34920       -2.57690       -2.29770
C          1.19440       -4.07100       -2.05880
O          1.92890       -2.10510       -3.24010
H          0.85090        1.76620        0.26560
H         -0.66370        1.77600       -0.66370
H         -0.69700        1.38160        1.08550
H          0.27660       -2.29890       -0.54210
H          0.13680       -4.35400       -2.02550
H          1.68560       -4.60450       -2.87130
H          1.64830       -4.36320       -1.10580
