19
gdb 10536	2.93362	1.3684	1.05751	4.0521	76.21	-0.2828	0.0373	0.3201	1179.1512	0.165062	-327.94124	-327.932412	-327.931467	-327.974852	32.145
C         -0.07310        1.58520       -0.05510
C         -0.18150        0.06190       -0.15820
C          0.87370       -0.54260       -1.09270
C          0.78890       -2.06080       -1.21610
C         -0.20080       -2.67170       -2.19920
C          1.26810       -2.73400       -2.49410
C          1.01050       -2.78520        0.01180
N          1.19150       -3.35200        1.00460
H          0.90620        1.88780        0.33170
H         -0.20370        2.06150       -1.03340
H         -0.83530        1.99100        0.61660
H         -0.07710       -0.38500        0.83770
H         -1.18090       -0.21660       -0.51550
H          0.76570       -0.11730       -2.09830
H          1.87730       -0.26660       -0.74540
H         -0.70590       -3.58500       -1.90950
H         -0.81270       -1.97140       -2.75710
H          1.67400       -2.07880       -3.25680
H          1.76900       -3.69010       -2.40250
