18
gdb 15893	2.65332	1.99322	1.2636	2.9064	69.88	-0.2299	0.0258	0.2557	995.7073	0.153791	-381.110633	-381.102146	-381.101202	-381.143656	30.793
C         -0.06340        1.47820        0.33390
N         -0.09160        0.15190       -0.28480
C         -1.38520       -0.49300       -0.18110
C         -1.44840       -1.99150       -0.59570
C         -0.18440       -2.68240       -1.05350
O         -1.79600       -2.34830        0.79050
C         -1.71980       -1.03830        1.19880
N         -1.88130       -0.52420        2.33200
H          0.93510        1.90760        0.21400
H         -0.80000        2.18190       -0.09210
H         -0.27550        1.37880        1.40080
H          0.15340        0.23410       -1.26700
H         -2.21790        0.10060       -0.59680
H         -2.29690       -2.22990       -1.24420
H          0.66250       -2.39450       -0.42840
H         -0.31650       -3.76750       -1.00900
H          0.04000       -2.41380       -2.09180
H         -2.08820       -1.23620        3.03540
