17
gdb 9062	4.5409	0.86675	0.767	3.5094	70.04	-0.2615	-0.0358	0.2257	1414.8522	0.139958	-363.892314	-363.882985	-363.882041	-363.927824	31.444
C         -0.09410        1.54850       -0.07060
C         -0.00570        0.01350       -0.00700
C          0.76290       -0.50170        1.22820
C          2.25300       -0.10150        1.22450
C          2.97040       -0.65140        2.37270
N          3.52100       -1.09240        3.28780
C         -1.41250       -0.56010        0.03270
O         -1.87430       -1.31420       -0.78200
H          0.89690        2.00550       -0.13690
H         -0.66140        1.86940       -0.94910
H         -0.59110        1.95230        0.81880
H          0.46440       -0.37410       -0.91790
H          0.29270       -0.12540        2.14450
H          0.69790       -1.59420        1.26690
H          2.73730       -0.45760        0.30780
H          2.36740        0.98700        1.24100
H         -2.01590       -0.21780        0.90780
