11
gdb 11192	4.49909	1.58472	1.37407	4.6964	51.3	-0.3177	-0.0237	0.294	846.587	0.073188	-434.585489	-434.578976	-434.578032	-434.61702	22.388
O          0.04360        0.03030       -0.06270
C         -0.00440        1.21220       -0.02620
O         -1.12480        1.96260       -0.17320
C         -0.84340        3.33360        0.08350
C          0.70550        3.38970        0.03470
O          1.08200        2.02420        0.18070
C          1.22500        3.94010       -1.22600
N          1.61440        4.40430       -2.20890
H         -1.32030        3.94930       -0.67900
H         -1.21910        3.60620        1.07400
H          1.12530        3.95840        0.86780
