11
gdb 4737	6.70788	1.37108	1.13839	4.061	62.44	-0.2295	-0.044	0.1855	933.0819	0.074389	-393.631867	-393.625424	-393.62448	-393.662465	23.813
O          0.11470        1.34410       -0.06910
C          0.07070        0.00030       -0.06320
C         -0.02270       -0.82000       -1.17060
N         -0.03310       -2.09210       -0.65380
C          0.05090       -1.98870        0.70230
N          0.11590       -0.71760        1.08440
C          0.06390       -3.12610        1.54550
N          0.07180       -4.08060        2.20180
H          0.17920        1.62560        0.85220
H         -0.07920       -0.61580       -2.22490
H         -0.09240       -2.95050       -1.17710
