18
gdb 4911	5.08748	1.23392	1.06484	0.6264	75.53	-0.2074	0.0274	0.2348	1158.6506	0.153656	-347.849746	-347.841429	-347.840485	-347.882872	30.201
C         -0.11210        1.59470        0.05570
C          0.10300        0.07560       -0.05040
C          0.73190       -0.52190        1.17350
C          1.96750       -1.07700        1.27910
O          2.20710       -1.50440        2.55170
C          1.09480       -1.21670        3.28700
C          1.12440       -1.59930        4.72330
C          0.16610       -0.61670        2.49530
H          0.84020        2.11320        0.20360
H         -0.57960        1.98850       -0.85240
H         -0.75930        1.84400        0.90260
H         -0.86310       -0.40940       -0.24210
H          0.73150       -0.14350       -0.92120
H          2.76380       -1.24150        0.57130
H          1.94060       -1.09850        5.25660
H          0.18260       -1.32030        5.20100
H          1.26640       -2.67870        4.84990
H         -0.81170       -0.28220        2.80810
