19
gdb 13103	3.98002	1.2142	1.02123	2.077	75.59	-0.246	0.0314	0.2773	1221.7737	0.164668	-365.067045	-365.058096	-365.057152	-365.101711	31.459
C         -0.61350        0.06390        0.80170
C          0.37520        0.52760       -0.26840
N          0.64920       -0.55720       -1.20800
C          1.83030       -0.83100       -1.50980
O          3.02690       -0.25580       -1.09930
C          3.79810       -1.22990       -1.86410
C          2.49390       -1.87570       -2.38850
C          2.21200       -3.33540       -2.05600
H         -1.53070       -0.31200        0.33920
H         -0.18470       -0.74370        1.40320
H         -0.87240        0.88940        1.47240
H         -0.07050        1.35480       -0.83640
H          1.28930        0.91530        0.20030
H          4.43640       -0.73450       -2.59990
H          4.40100       -1.85770       -1.20110
H          2.32430       -1.68160       -3.45180
H          2.40410       -3.54280       -0.99840
H          1.16410       -3.57270       -2.25880
H          2.83770       -4.00380       -2.65590
