17
gdb 20231	4.09496	2.64518	2.27543	1.725	69.12	-0.2288	0.0851	0.3138	681.9402	0.146097	-326.673179	-326.667792	-326.666848	-326.702322	23.024
C         -0.03570        1.58840        0.02040
C          1.46130        2.02950        0.00150
C          2.22800        0.71270       -0.11920
C          1.33530       -0.35740       -0.78650
C          1.73260       -1.30170        0.39370
C          0.75680       -0.55440        1.21760
C          0.04860        0.05790        0.00250
N          2.19830       -0.10620        1.15450
H         -0.57180        1.95560        0.90090
H         -0.57010        1.96140       -0.85990
H          1.67740        2.69030       -0.84410
H          1.75720        2.55810        0.91270
H          3.25850        0.79020       -0.46930
H          1.31880       -0.56500       -1.85440
H          2.17630       -2.28430        0.47780
H          0.36400       -0.76820        2.20370
H         -0.86170       -0.47470       -0.27750
