20
gdb 391	6.53322	1.83734	1.58068	0.067	67.19	-0.303	0.0843	0.3874	855.476	0.188227	-236.916125	-236.907738	-236.906794	-236.948351	30.015
C          0.09340        1.55710        0.03950
C         -0.02450        0.02990       -0.00080
C         -1.46570       -0.51460       -0.04050
C         -2.20610       -0.08450       -1.31530
C         -1.45470       -2.04630        0.12940
C         -2.83330       -2.69190        0.30400
H          1.13870        1.86480        0.14460
H         -0.29340        2.02490       -0.87080
H         -0.46120        1.97390        0.88800
H          0.52660       -0.35720       -0.86960
H          0.47800       -0.38490        0.88260
H         -2.00330       -0.09030        0.82210
H         -1.70820       -0.48470       -2.20740
H         -3.23950       -0.44220       -1.32330
H         -2.24150        1.00390       -1.41500
H         -0.94620       -2.49690       -0.73480
H         -0.83760       -2.29320        1.00300
H         -2.73960       -3.76540        0.49660
H         -3.37220       -2.24980        1.14990
H         -3.45950       -2.57430       -0.58550
