15
gdb 8819	3.0416	1.47574	1.08282	3.8059	61.96	-0.2922	-0.0545	0.2377	1075.6843	0.116245	-399.827458	-399.818588	-399.817644	-399.861881	30.427
C          0.11030        1.50090        0.12870
C          0.12490       -0.01750       -0.03700
C          0.80170       -0.47930       -1.30210
O          1.29420        0.25550       -2.12430
C          0.86040       -2.00970       -1.60020
O          1.45150       -2.23830       -2.83920
C          1.58360       -2.69290       -0.50770
N          2.13960       -3.20990        0.36350
H          1.12710        1.89970        0.15610
H         -0.41030        1.98190       -0.70310
H         -0.39380        1.77530        1.05850
H          0.62730       -0.51060        0.80550
H         -0.89340       -0.43170       -0.03960
H         -0.17390       -2.38840       -1.59340
H          1.77760       -1.36650       -3.12540
