11
gdb 2733	4.81945	2.29446	1.6936	4.1088	52.44	-0.2913	-0.0066	0.2848	688.7236	0.079309	-339.437849	-339.431769	-339.430825	-339.468119	21.266
N         -0.01870        1.23250       -0.22980
C         -0.00290        0.00820        0.00590
O          1.01580       -0.85950        0.32890
C          0.10240       -1.98850        0.45280
C         -1.08240       -1.07960        0.02590
C         -2.17930       -0.92000        0.96280
N         -3.04590       -0.81570        1.71940
H          0.90850        1.65300       -0.15820
H          0.36080       -2.78780       -0.24340
H          0.06290       -2.35620        1.47920
H         -1.46900       -1.29780       -0.97260
