18
gdb 11600	6.13494	0.89169	0.84107	2.5793	69.32	-0.2294	0.0339	0.2633	1365.3827	0.152797	-381.123914	-381.114634	-381.11369	-381.160582	31.736
N         -0.13090        1.31100        0.01880
C          0.06140       -0.03220       -0.13180
O          1.16900       -0.51730       -0.26660
C         -1.21750       -0.86430       -0.13960
C         -0.95920       -2.31420        0.26720
N         -2.19290       -3.08970        0.18440
C         -2.45970       -3.73030       -1.10140
C         -2.02950       -4.53420        0.07530
H          0.67310        1.91600       -0.00990
H         -1.04220        1.71660        0.13590
H         -1.97920       -0.42000        0.51030
H         -1.62700       -0.83810       -1.15850
H         -0.15180       -2.72410       -0.35980
H         -0.60500       -2.35000        1.30360
H         -3.49650       -3.73400       -1.42540
H         -1.73140       -3.59470       -1.90010
H         -1.01640       -4.93320        0.05820
H         -2.74680       -5.13490        0.62740
