16
gdb 21946	6.75459	1.01237	0.9416	2.2791	66.32	-0.2358	0.0238	0.2596	1197.2513	0.132446	-379.93514	-379.92734	-379.926396	-379.968347	27.722
O         -0.07050        1.47830        0.05060
C          0.03210        0.06340        0.06380
C         -1.38330       -0.50660       -0.05540
C         -1.40590       -2.00540       -0.04190
C         -1.49360       -2.86710       -1.11890
N         -1.44730       -4.12560       -0.61750
N         -1.33680       -4.15750        0.72310
C         -1.30960       -2.87490        1.07270
H          0.81380        1.84550        0.13660
H          0.64660       -0.30610       -0.77250
H          0.49740       -0.29930        0.99400
H         -1.98130       -0.10520        0.77060
H         -1.83020       -0.12360       -0.97890
H         -1.59000       -2.67920       -2.17700
H         -1.50080       -4.99350       -1.12260
H         -1.22860       -2.60840        2.11720
