13
gdb 5171	6.27944	1.23691	1.12039	2.2108	60.71	-0.247	-0.0363	0.2106	1007.06	0.095514	-398.638394	-398.631367	-398.630423	-398.671434	24.057
O         -0.05460       -0.15290       -0.24880
C          0.01690        1.04520       -0.23860
C          1.33320        1.82220       -0.21910
C          1.33500        2.95560       -1.18350
N          1.17360        4.21960       -0.94600
C          1.21890        4.81910       -2.19890
C          1.40480        3.86460       -3.13890
O          1.47740        2.65760       -2.50220
H         -0.89050        1.68850       -0.22650
H          1.45060        2.24900        0.78330
H          2.15060        1.12230       -0.40890
H          1.11820        5.88520       -2.32350
H          1.50600        3.85140       -4.21010
