16
gdb 14927	4.55207	1.47584	1.19026	3.7437	65.46	-0.237	0.0194	0.2565	975.076	0.133169	-379.922945	-379.915858	-379.914914	-379.954297	26.69
N         -0.00150       -1.15320        0.03970
C          0.00910        0.00140        0.00490
C          0.00130        1.46630        0.02020
C         -0.73580        1.99280        1.27570
O         -0.71060        3.40270        1.28990
C          0.61590        3.91560        1.30210
C          1.38430        3.44720        0.06580
N          1.37080        1.98710       -0.09070
H         -0.55450        1.81580       -0.86040
H         -1.78650        1.69030        1.27080
H         -0.25360        1.57790        2.17670
H          0.52430        5.00530        1.32980
H          1.13760        3.58730        2.21780
H          0.92620        3.88710       -0.82890
H          2.42500        3.78360        0.10450
H          1.94680        1.55770        0.62920
