18
gdb 14421	3.94066	1.8298	1.63723	1.1866	71.06	-0.2307	0.0745	0.3052	863.7455	0.154311	-347.748141	-347.741007	-347.740063	-347.778937	28.727
C          0.00420        1.59730       -0.01040
C          0.09440        0.07670        0.01460
C          0.79300       -0.69510       -1.10650
C          2.30470       -0.81740       -0.73100
C          2.49140       -0.13150        0.61950
C          1.07660       -0.65820        0.98360
C          1.26520       -1.75700       -0.16930
O          1.06440       -3.11030       -0.23680
H          0.97050        2.06630       -0.21490
H         -0.68940        1.92720       -0.79210
H         -0.36650        1.98650        0.94500
H         -0.90530       -0.34980        0.15680
H          0.48580       -0.82130       -2.13730
H          3.03690       -1.01150       -1.50460
H          3.26610       -0.62840        1.21150
H          2.65570        0.95040        0.65260
H          0.79710       -0.83730        2.02050
H          1.79040       -3.55170        0.21870
