13
gdb 3700	3.74973	3.33123	1.78369	0.5157	55.53	-0.2077	0.0293	0.2371	670.0325	0.102681	-340.654465	-340.647629	-340.646685	-340.685112	24.496
C          0.01800        1.46700        0.00830
C          0.01490       -0.02770        0.04840
N         -0.08020       -0.75950       -1.06400
N         -0.05120       -2.03290       -0.64410
C          0.06000       -2.15660        0.70700
C          0.10530       -0.86590        1.18720
O          0.21540       -0.51450        2.50000
H          0.94020        1.88720        0.42930
H         -0.06190        1.80570       -1.02660
H         -0.82340        1.89480        0.56810
H         -0.11050       -2.77130       -1.32270
H          0.09730       -3.10950        1.20770
H          0.22440        0.44550        2.55850
