19
gdb 17462	4.15809	1.92861	1.6479	1.4999	73.86	-0.2248	0.0848	0.3096	857.7589	0.167203	-327.891693	-327.884759	-327.883815	-327.922232	28.385
C         -0.06600        1.50950        0.00530
C          0.00300        0.00020       -0.00050
C         -0.83230       -0.79560        0.97600
C          0.67750       -0.80920        1.08610
N          1.50570       -1.87240        0.52030
C          0.81620       -2.99200       -0.13520
C          1.30300       -1.84710       -0.94570
C          0.35990       -0.70180       -1.32210
H          0.86070        1.95300       -0.37750
H         -0.89160        1.87440       -0.61750
H         -0.22700        1.89230        1.01810
H         -1.35890       -0.23390        1.74210
H         -1.37540       -1.67020        0.63810
H          1.12900       -0.33180        1.94930
H          1.37560       -3.92410       -0.13120
H         -0.25190       -3.12170        0.00560
H          2.19590       -1.97680       -1.55280
H         -0.52480       -1.04510       -1.87050
H          0.88520        0.00130       -1.97670
