14
gdb 16044	3.67443	1.74449	1.43322	3.8999	63.35	-0.2428	0.009	0.2518	865.408	0.107867	-378.676335	-378.669031	-378.668087	-378.707942	26.669
N         -0.15530        1.47860       -0.10440
C         -0.09900        0.04670       -0.04910
C         -0.45260       -0.73730        1.16810
O         -1.41580       -0.02630        1.94010
C         -2.39870       -0.12220        0.86970
C         -1.38570       -0.79760       -0.05610
C         -1.65020       -1.83260       -0.99090
N         -1.85840       -2.67400       -1.75940
H         -0.41120        1.84220        0.80940
H          0.75280        1.85780       -0.34410
H          0.67130       -0.40500       -0.66680
H          0.13510       -1.50290        1.66290
H         -3.22150       -0.77710        1.16750
H         -2.77280        0.85590        0.55280
