15
gdb 21318	7.15961	1.11769	0.99821	2.6136	63.63	-0.262	-0.0095	0.2525	1138.437	0.118773	-399.778053	-399.770508	-399.769564	-399.810918	26.212
C          0.12160        1.41910        0.04920
O          0.25590        0.01820        0.12280
C          0.54130       -0.56480       -1.12980
C          0.61700       -2.04900       -0.95290
N          1.52670       -2.74670       -1.58980
O          1.29750       -4.07330       -1.23930
C          0.25950       -4.12270       -0.39110
C         -0.22780       -2.87930       -0.16070
H          1.04800        1.89950       -0.30170
H         -0.69630        1.71550       -0.62660
H         -0.10300        1.77670        1.05650
H         -0.25270       -0.31590       -1.85580
H          1.49050       -0.19580       -1.54610
H         -0.00980       -5.10600       -0.03750
H         -1.04270       -2.57930        0.47490
