18
gdb 18131	4.11794	1.86322	1.42691	0.1434	65.86	-0.2463	0.0674	0.3137	877.5497	0.15757	-384.944126	-384.93751	-384.936566	-384.975606	25.319
C          0.02700        1.56050       -0.05790
O          1.40090        1.92030       -0.07690
C          2.05890        1.03930        0.82210
C          1.38350       -0.33560        0.64420
C          1.02820       -1.12450        1.92080
O         -0.28700       -1.62270        1.72230
C         -1.00370       -0.60300        1.04140
C         -0.01060        0.02200        0.04070
H         -0.47880        2.01370        0.81210
H         -0.43230        1.95980       -0.96550
H          3.12320        1.04790        0.57430
H          1.94430        1.39190        1.86160
H          1.95510       -0.95840       -0.04610
H          1.68090       -1.97990        2.11160
H          1.06120       -0.46240        2.80310
H         -1.87500       -1.06720        0.57280
H         -1.36150        0.15960        1.75450
H         -0.12950       -0.42390       -0.94830
