15
gdb 10901	3.21314	2.059	1.44591	4.4493	61.75	-0.2268	-0.0252	0.2016	862.2687	0.117907	-399.766208	-399.758576	-399.757632	-399.798066	28.227
C         -0.09510        1.53750        0.06080
C          0.14230        0.06430       -0.02900
N         -0.75440       -0.94640        0.64630
C          0.68580       -0.94760        0.94840
C          1.28340       -1.82860       -0.16340
O          0.84100       -3.14670       -0.25940
C          0.75020       -0.73090       -1.16820
O          0.92070       -0.51270       -2.33110
H          0.78530        2.09010       -0.28130
H         -0.93950        1.83480       -0.56960
H         -0.31290        1.84450        1.08930
H         -1.23960       -0.44360        1.38940
H          1.06400       -0.77120        1.94730
H          2.37800       -1.83610       -0.17650
H         -0.12050       -3.10990       -0.16430
