15
gdb 5544	3.28847	1.97282	1.29609	2.3581	64.07	-0.2169	0.0134	0.2303	926.8295	0.118495	-399.8243	-399.816395	-399.815451	-399.857231	27.376
C          0.14960        1.34160        0.06300
O         -0.43520        0.12960       -0.43060
C          0.32760       -0.58730       -1.25820
C          0.67170       -1.89920       -1.28430
C          0.35360       -2.97560       -0.30450
N          1.41130       -2.12360       -2.44970
C          1.47590       -0.97460       -3.03000
O          0.83490        0.02880       -2.37650
H          1.08110        1.12960        0.60050
H          0.34940        2.04050       -0.75470
H         -0.58190        1.77410        0.74640
H         -0.25450       -3.76240       -0.76400
H          1.26730       -3.44910        0.07020
H         -0.20000       -2.56610        0.54400
H          1.97450       -0.70980       -3.94900
