14
gdb 14550	5.25002	1.53532	1.42796	2.8442	60.56	-0.2386	-0.0392	0.1994	862.6315	0.105761	-419.629272	-419.622254	-419.62131	-419.660481	26.167
O         -0.12840        1.37560        0.04870
C         -0.09660       -0.00230        0.03450
C          1.03510       -0.59110        0.77450
O          1.86420        0.10650        1.31870
C         -1.38280       -0.81730        0.03800
C         -2.38910       -0.07940       -0.84460
O         -1.45890       -0.07090       -1.96430
C         -0.52050       -0.80260       -1.20370
H          0.67310        1.63830        0.52930
H          1.09560       -1.69810        0.79310
H         -1.60910       -1.58670        0.76480
H         -3.26760       -0.68340       -1.08980
H         -2.67960        0.92830       -0.53680
H          0.09240       -1.53960       -1.71150
