19
gdb 17644	3.27303	1.67343	1.18934	3.6339	72.6	-0.234	0.0325	0.2665	1035.5245	0.164232	-365.077835	-365.068778	-365.067834	-365.111714	32.447
C          0.43890        1.50450        0.00840
N          0.03630        0.10190        0.02520
C          0.36570       -0.65880        1.19700
C         -0.10560       -0.16970        2.54450
C         -0.69700       -1.41900        1.95250
C         -0.32620       -0.48370       -1.17410
C         -0.52890       -1.99140       -1.17530
O         -0.48150        0.16990       -2.19110
H          1.51490        1.60470        0.20000
H          0.20840        1.90590       -0.97670
H         -0.09820        2.07630        0.77100
H          1.35950       -1.10880        1.18850
H          0.58030       -0.25460        3.37930
H         -0.73490        0.71210        2.56780
H         -1.71300       -1.35250        1.58210
H         -0.43010       -2.38240        2.37230
H         -1.40760       -2.27750       -0.59110
H         -0.67650       -2.29680       -2.21060
H          0.32860       -2.52350       -0.75340
