14
gdb 1226	8.43457	1.11787	1.02811	4.4272	55.88	-0.2512	-0.0207	0.2305	1060.7893	0.111326	-361.759779	-361.751525	-361.750581	-361.793588	27.211
N         -0.00280        1.33350       -0.10520
C          0.03720        0.00510        0.19310
O          1.04000       -0.54540        0.60320
C         -1.28970       -0.73680        0.00560
C         -1.06200       -2.21810       -0.31770
C         -2.28380       -3.05690       -0.03620
O         -2.79470       -3.82550       -0.80850
H          0.82960        1.88210        0.03580
H         -0.82830        1.78480       -0.45670
H         -1.84000       -0.64280        0.95280
H         -1.90540       -0.25350       -0.76050
H         -0.75420       -2.36800       -1.35560
H         -0.24660       -2.56650        0.33120
H         -2.70110       -2.91560        0.99070
