16
gdb 16316	3.18299	1.94207	1.39416	2.6308	65.23	-0.2412	-0.0252	0.216	912.4166	0.128755	-383.723418	-383.715631	-383.714687	-383.755868	28.397
C          0.15660        1.53450       -0.12180
C         -0.09920        0.02480        0.00040
C          0.48810       -0.54220        1.25180
O          1.92690       -0.72480        1.33950
C          1.09930       -1.84720        1.62790
C          0.72510       -1.72330        3.11060
C          0.05620       -0.36970        2.71220
O         -0.66130        0.39950        3.27900
H          1.23000        1.74370       -0.14500
H         -0.28910        1.92890       -1.03900
H         -0.27690        2.06980        0.72780
H         -1.17790       -0.17280        0.00320
H          0.32550       -0.50740       -0.85800
H          1.20820       -2.73570        1.01790
H         -0.02880       -2.43220        3.46670
H          1.56620       -1.68700        3.80530
