7
gdb 778	9.89124	4.17925	2.93792	3.3641	32.83	-0.2998	-0.0327	0.2672	391.4571	0.038724	-357.171724	-357.167571	-357.166627	-357.199275	14.093
O         -0.03250       -0.01290        0.00350
C         -0.00710        1.16960        0.00920
O         -1.11580        2.00900        0.02840
C         -0.60910        3.25630        0.02840
N          0.66640        3.33420        0.01210
O          1.08520        1.97900       -0.00060
H         -1.28550        4.09670        0.04180
