14
gdb 15128	9.42512	0.71009	0.6806	4.3063	69.68	-0.2663	-0.0615	0.2048	1553.7685	0.104774	-382.489301	-382.480897	-382.479953	-382.524333	27.656
O         -0.06820       -0.00170       -0.28530
C          0.02880        1.20330       -0.24260
C          1.26850        1.91760       -0.07680
C          2.29280        2.54310        0.05580
C          3.52510        3.30030        0.22510
C          3.30360        4.80370        0.26210
C          4.32960        5.73490       -0.21860
O          3.16260        5.45340       -0.99560
H         -0.86170        1.85850       -0.33130
H          4.01630        2.98270        1.15510
H          4.21550        3.06160       -0.59300
H          2.60620        5.14570        1.02720
H          4.38700        6.73900        0.19770
H          5.26360        5.34440       -0.62130
