15
gdb 3138	5.87136	2.01468	1.79772	1.8523	56.81	-0.2571	0.0709	0.328	730.3707	0.124887	-345.609914	-345.603221	-345.602277	-345.640641	24.817
O          0.09970        1.36630       -0.31860
C          0.09410        0.00940        0.09870
C         -1.29690       -0.51420        0.25920
C         -2.34650       -0.21840        1.34500
C         -2.98500       -1.62030        1.04140
C         -1.91000       -1.82320       -0.03570
O         -2.03430       -0.73680       -0.96170
H         -0.39510        1.40350       -1.14500
H          0.63900       -0.63640       -0.60660
H          0.62210       -0.01560        1.05770
H         -1.92130       -0.15910        2.34960
H         -2.96670        0.66030        1.15850
H         -2.89210       -2.31450        1.87980
H         -4.01260       -1.62810        0.67150
H         -1.47730       -2.74360       -0.41300
