18
gdb 15913	2.75005	1.83163	1.2434	4.4626	63.59	-0.2435	0.0572	0.3007	981.3363	0.153082	-422.050601	-422.041966	-422.041021	-422.083456	32.185
O          0.07160        1.40020       -0.09320
C          0.05210        0.00070        0.12260
C         -1.37900       -0.54700        0.08630
C         -1.98970       -0.59620       -1.34120
O         -1.38200        0.30340       -2.25260
C         -1.62270       -2.10190       -1.43160
C         -1.47850       -2.09590        0.11720
O         -0.36040       -2.72640        0.69890
H         -0.28330        1.53160       -0.98080
H          0.68830       -0.52790       -0.60070
H          0.48070       -0.17690        1.11270
H         -1.97200       -0.01070        0.83120
H         -3.07650       -0.44370       -1.31980
H         -1.79190        0.20190       -3.11670
H         -2.34140       -2.78710       -1.88840
H         -0.64240       -2.22490       -1.90020
H         -2.40870       -2.42230        0.60290
H         -0.48440       -3.67900        0.64220
