15
gdb 17508	5.0355	1.76238	1.61059	1.3148	71.27	-0.237	0.0276	0.2646	814.2327	0.119342	-325.422089	-325.415717	-325.414773	-325.452285	25.677
C          0.01350       -1.23580       -0.02870
C          0.02200       -0.03240       -0.01860
C          0.04110        1.39860        0.00680
C         -0.52630        2.25130       -1.17340
C          0.42430        3.34500       -0.69860
C          1.29750        2.38250        0.00760
N          0.49680        3.34330        0.80730
C         -0.41160        2.23350        1.22990
H          0.00350       -2.29750       -0.03980
H         -0.21120        1.85170       -2.13960
H         -1.60540        2.43560       -1.17480
H          0.68500        4.27490       -1.18520
H          2.36650        2.23790        0.08760
H         -1.47470        2.48910        1.30440
H         -0.05140        1.82810        2.17750
