16
gdb 2460	6.06599	2.24272	1.87717	1.3652	66.24	-0.2221	0.0216	0.2438	718.2698	0.138302	-288.628801	-288.622544	-288.6216	-288.658547	24.451
C          0.04280        1.47940        0.03830
C         -0.02570       -0.01310       -0.01580
C         -0.10970       -0.78460       -1.10610
C         -0.05800       -2.23100       -0.75050
N          1.22910       -2.61230       -0.09190
C          0.04480       -2.28770        0.73260
C          0.03280       -0.85530        1.25230
H          0.99290        1.81670        0.47210
H         -0.04940        1.92360       -0.95650
H         -0.75210        1.89170        0.67350
H         -0.15920       -0.42100       -2.12620
H         -0.58090       -2.98000       -1.33580
H          1.31770       -3.62740       -0.12460
H         -0.41740       -3.07880        1.31320
H          0.92640       -0.62970        1.84740
H         -0.83630       -0.66580        1.89740
