20
gdb 14947	4.11974	1.31661	1.08139	2.9482	75.53	-0.243	-0.0174	0.2256	1118.1358	0.178748	-349.042838	-349.034989	-349.034045	-349.075451	29.748
O         -0.13750       -0.01600        0.00340
C         -0.02300        1.18260        0.00820
C          1.28470        1.94160       -0.00010
C          1.37450        2.82130       -1.26640
C          2.64450        3.68450       -1.26920
C          2.74950        4.53990        0.00020
C          2.66830        3.67070        1.26210
C          1.39840        2.80750        1.27380
H         -0.92560        1.84230        0.01980
H          2.08950        1.19710       -0.01170
H          1.34180        2.18870       -2.16040
H          0.49110        3.47460       -1.31120
H          3.52410        3.03040       -1.33970
H          2.65690        4.32020       -2.16150
H          3.68290        5.11340       -0.00540
H          1.93210        5.27440        0.01190
H          3.54900        3.01600        1.30880
H          2.69760        4.29670        2.16080
H          0.51610        3.46010        1.34230
H          1.38250        2.16520        2.16130
