19
gdb 8067	3.55573	1.58617	1.34942	1.5352	72.09	-0.2402	0.0702	0.3104	996.2395	0.16561	-364.987751	-364.979786	-364.978842	-365.020064	30.548
C          0.02020        1.51970       -0.00470
C         -0.23130        0.00900       -0.09180
C          0.54030       -0.62680       -1.23460
N          2.09340       -0.66560       -1.16620
C          1.92960       -1.88110       -0.24110
C          0.86520       -2.12910       -1.34070
O         -0.08940       -3.12500       -1.46180
C          1.98530       -1.67850       -2.31470
H          1.07930        1.72680        0.17320
H         -0.26280        2.02190       -0.93640
H         -0.56000        1.96940        0.80650
H         -0.00130       -0.45960        0.86940
H         -1.29660       -0.18270       -0.27280
H          0.22210       -0.16900       -2.17920
H          2.81180       -2.52750       -0.22910
H          1.61050       -1.64090        0.77240
H          0.35510       -3.97900       -1.50130
H          1.69350       -1.23210       -3.26880
H          2.87230       -2.31000       -2.41410
