15
gdb 18689	3.21857	2.33731	1.49533	4.5892	61.	-0.2446	0.0014	0.246	817.1984	0.121326	-399.816918	-399.81031	-399.809366	-399.847834	25.071
O          0.03920        0.00450       -0.40960
C          0.00810        1.17900       -0.09800
N         -1.15030        1.84960        0.18950
C         -1.27820        3.30440        0.15200
C         -0.13350        3.98490        0.90920
C          1.21680        3.37810        0.55580
O          1.64080        2.30630        1.39640
C          1.27320        1.99550        0.04500
H         -1.98290        1.29860        0.03390
H         -1.29940        3.66570       -0.88760
H         -2.23810        3.57230        0.60230
H         -0.14110        5.05470        0.67990
H         -0.27840        3.87530        1.98860
H          2.01600        4.06320        0.27590
H          2.08880        1.65290       -0.58740
