21
gdb 1132	4.06437	1.54353	1.36761	1.0249	71.72	-0.2419	0.0805	0.3224	1021.1314	0.191749	-312.131398	-312.121927	-312.120983	-312.165172	34.217
C          1.39970        0.78560       -0.64130
C          0.29500       -0.04510        0.00440
C         -0.22160       -1.14340       -0.93050
O          0.84480       -0.60850        1.19210
C         -0.08260       -0.91340        2.23000
C          0.53000       -2.04480        3.04980
C         -0.37120        0.32580        3.08330
H          2.26060        0.15020       -0.87320
H          1.04980        1.24570       -1.57050
H          1.73270        1.57480        0.03790
H         -0.54150        0.62230        0.26510
H          0.59950       -1.80670       -1.22060
H         -0.99440       -1.74910       -0.44730
H         -0.65580       -0.71010       -1.83770
H         -1.02710       -1.26890        1.78870
H          1.49180       -1.72870        3.46640
H         -0.12810       -2.32850        3.87670
H          0.70360       -2.92270        2.42180
H          0.55210        0.68360        3.55020
H         -0.78520        1.13940        2.47990
H         -1.09360        0.09510        3.87330
