18
gdb 14528	3.81224	1.61545	1.34759	3.0463	66.86	-0.2437	0.0713	0.315	957.1726	0.152998	-384.896584	-384.888609	-384.887665	-384.929185	29.213
C          0.04210        1.56590       -0.41830
C         -0.02740        0.09600       -0.06370
C          1.14510       -0.76270       -0.28620
O          0.81680       -0.30160        1.02830
C         -1.41660       -0.50010       -0.05170
C         -1.62940       -1.91510        0.52910
O         -2.63350       -1.43460        1.44600
C         -2.37100       -0.06470        1.08890
H          1.07100        1.92810       -0.35810
H         -0.33250        1.73940       -1.43290
H         -0.56800        2.16010        0.27060
H          1.01730       -1.83220       -0.45010
H          2.05030       -0.33710       -0.71740
H         -1.86920       -0.37620       -1.03980
H         -2.02700       -2.67300       -0.15520
H         -0.75740       -2.31510        1.06000
H         -1.87640        0.48210        1.90300
H         -3.28340        0.46790        0.79720
