15
gdb 7127	7.63823	0.87391	0.79199	1.257	62.09	-0.2732	-0.024	0.2492	1387.0673	0.116156	-436.947782	-436.938818	-436.937873	-436.982566	29.32
C          0.05380        1.40630       -0.13260
O         -0.00170        0.00180       -0.01110
C          0.61210       -0.65340       -1.07570
C          0.51080       -2.15050       -0.86680
O         -0.00340       -2.71840        0.04970
O          1.12350       -2.76900       -1.93250
C          1.15080       -4.14220       -1.95180
N          1.71160       -4.70500       -2.92600
H          1.09180        1.77240       -0.15770
H         -0.45850        1.75730       -1.04180
H         -0.44920        1.82300        0.74210
H          0.14650       -0.41280       -2.04710
H          1.68080       -0.39490       -1.17340
H          0.66310       -4.58730       -1.08440
H          1.66090       -5.71670       -2.81500
