15
gdb 1532	8.76725	1.20006	1.07673	0.36	54.18	-0.2683	0.0158	0.2841	1051.6852	0.12304	-382.818623	-382.810101	-382.809157	-382.852503	27.932
C         -0.05880        1.34350       -0.06380
O          0.03200       -0.08240        0.04400
C          0.67920       -0.53890        1.13470
O          1.15730        0.18100        1.97680
C          0.71570       -2.04950        1.14700
C          1.43890       -2.60060        2.36720
O          1.40490       -4.01580        2.26350
H          0.93690        1.79270       -0.10090
H         -0.59960        1.53710       -0.99030
H         -0.59930        1.76200        0.78910
H         -0.31090       -2.43050        1.10940
H          1.19820       -2.40110        0.22820
H          2.46890       -2.21690        2.39060
H          0.94290       -2.24570        3.28190
H          1.86400       -4.38140        3.02490
