15
gdb 5912	4.10977	1.2844	1.21971	4.5874	67.36	-0.2851	0.0104	0.2955	1015.5773	0.115468	-362.641525	-362.632549	-362.631604	-362.674759	32.415
C          0.06570        1.58240        0.01390
C          0.01690        0.05010       -0.00260
O          0.67990       -0.37600        1.18130
C         -1.45680       -0.47070       -0.00670
C         -2.21230       -0.03190        1.16310
N         -2.82120        0.31900        2.08000
C          0.68310       -0.48850       -1.19730
C          1.21990       -0.96800       -2.15990
H          1.10610        1.91180        0.01080
H         -0.44080        1.99620       -0.86130
H         -0.42000        1.95120        0.92060
H          0.86380       -1.31910        1.10610
H         -1.96640       -0.13260       -0.91480
H         -1.44740       -1.56540       -0.03480
H          1.70700       -1.37650       -3.01140
