17
gdb 13769	3.1261	1.50098	1.19043	5.5117	69.2	-0.2748	0.0308	0.3056	1041.5894	0.1411	-363.864994	-363.856352	-363.855408	-363.89834	31.309
C          0.02440        1.45850       -0.23260
C          0.02620       -0.01180        0.19020
O          0.61200       -0.18780        1.47340
C         -1.36870       -0.60860        0.13940
C         -1.93600       -1.15800       -1.13420
C         -1.57700       -2.10930       -0.00070
C         -0.45480       -2.99290       -0.15540
N          0.43910       -3.71440       -0.29390
H          1.03680        1.86580       -0.17250
H         -0.34290        1.57760       -1.25650
H         -0.62370        2.05160        0.42520
H          0.67400       -0.58110       -0.48620
H          0.14060        0.37690        2.09600
H         -2.07820       -0.12820        0.81060
H         -2.98870       -1.02050       -1.35160
H         -1.29220       -1.18010       -2.00670
H         -2.39930       -2.54250        0.55840
