16
gdb 8165	2.83132	2.67361	1.75545	2.6614	64.13	-0.2295	-0.0164	0.2131	783.1557	0.13036	-383.742999	-383.736056	-383.735112	-383.773909	26.901
C         -0.10240        1.53330       -0.00280
C          0.01570        0.04230       -0.04010
C          0.74660       -0.79550       -1.12590
C         -0.28630       -1.82420       -0.62060
C          0.17970       -2.17560        0.80340
C          0.42740       -0.71480        1.24150
O          0.81790       -0.27270        2.28550
O         -1.21040       -0.71660       -0.35660
H          0.86260        1.97280        0.26690
H         -0.41740        1.93060       -0.97090
H         -0.82950        1.83470        0.75710
H          0.51290       -0.42860       -2.12660
H          1.81370       -1.00730       -1.01360
H         -0.70320       -2.60830       -1.25040
H         -0.60930       -2.64530        1.39550
H          1.08670       -2.78350        0.86830
