22
gdb 10222	3.01304	1.14721	0.88504	3.0105	75.67	-0.2454	0.0781	0.3235	1374.1126	0.198651	-387.33207	-387.321817	-387.320873	-387.367579	36.132
C          0.07180        1.53820        0.13500
C         -0.04190        0.02400       -0.07190
C         -1.48800       -0.50880       -0.07760
C         -2.23260       -0.13850       -1.37420
O         -3.62940       -0.32960       -1.29960
C         -1.46920       -2.02390        0.13460
O         -2.79600       -2.53140        0.15860
C         -2.85260       -3.93320        0.30010
H          1.12040        1.85110        0.14930
H         -0.42710        2.10120       -0.65940
H         -0.37920        1.83880        1.08670
H          0.45000       -0.25840       -1.01290
H          0.52110       -0.48200        0.72310
H         -2.04100       -0.05820        0.75750
H         -2.08140        0.92140       -1.60320
H         -1.78630       -0.71050       -2.20940
H         -3.75680       -1.21260       -0.92830
H         -0.90070       -2.51000       -0.67800
H         -0.96250       -2.27350        1.08140
H         -2.35540       -4.44660       -0.53700
H         -2.37740       -4.26000        1.23720
H         -3.90660       -4.21950        0.31850
