16
gdb 15399	3.87282	1.09336	0.92282	1.0846	67.63	-0.2614	0.0196	0.281	1228.4553	0.127804	-383.673545	-383.664778	-383.663833	-383.707549	30.984
O          0.00740        1.38630        0.03780
C         -0.06830       -0.00900        0.28160
C         -1.31470       -0.53090       -0.42770
C         -1.45490       -2.02380       -0.28690
O         -1.82130       -2.52890        0.99880
C         -2.75490       -2.70260       -0.08080
C         -4.00110       -1.98810       -0.00860
C         -5.06130       -1.42300        0.03230
H          0.75250        1.73810        0.53330
H          0.82620       -0.53020       -0.09930
H         -0.14490       -0.23060        1.35640
H         -2.19830       -0.03180       -0.02120
H         -1.25090       -0.27370       -1.49200
H         -0.68200       -2.61790       -0.78070
H         -2.84170       -3.73380       -0.42310
H         -5.99440       -0.91740        0.07520
