12
gdb 3776	8.10639	2.09056	1.67954	1.2641	53.72	-0.2152	-0.0187	0.1965	696.8808	0.090664	-352.83693	-352.830084	-352.829139	-352.867944	23.081
C          0.02480        1.41800        0.00350
N          0.05000       -0.03360       -0.01940
C         -1.07430       -0.62190       -0.03180
N         -2.39360       -0.17980       -0.02880
N         -3.28530       -1.21740       -0.04690
N         -2.62470       -2.29620       -0.06190
N         -1.30290       -1.98970       -0.05400
H          1.04980        1.79610        0.01970
H         -0.46730        1.85120       -0.88350
H         -0.48520        1.82350        0.89350
H         -2.73160        0.76520       -0.01480
H         -0.60750       -2.71500       -0.06190
