10
gdb 46	16.79477	6.71015	5.86781	1.3894	34.64	-0.239	0.0775	0.3166	263.966	0.085106	-193.034988	-193.030356	-193.029411	-193.061689	15.679
O          0.21580        1.35390       -0.10700
C          0.01630       -0.02830       -0.02920
C         -0.39080       -0.71500        1.24320
C         -1.35120       -0.64280        0.06270
H         -0.43640        1.79060        0.45010
H          0.74980       -0.52400       -0.65620
H          0.05960       -1.66840        1.49730
H         -0.61370       -0.08850        2.10170
H         -2.19820        0.03060        0.15410
H         -1.56400       -1.54640       -0.49830
