18
gdb 9507	2.99277	1.74075	1.52261	3.6691	68.22	-0.2385	-0.0237	0.2148	935.4125	0.151064	-384.934282	-384.92549	-384.924546	-384.967879	31.383
C         -0.29890        1.47720       -0.05050
C          0.05230       -0.00370       -0.06030
C          1.34070       -0.40060       -0.81530
O          2.01290       -0.76520        0.40640
C          0.81570       -0.60020        1.18120
C          1.03480        0.25270        2.42210
C          0.19570       -1.93950        1.55830
O          0.58250       -3.01070        1.17720
H          0.57240        2.10000        0.17350
H         -0.67480        1.77810       -1.03440
H         -1.07790        1.70410        0.68450
H         -0.82580       -0.59070       -0.34500
H          1.24040       -1.25460       -1.49490
H          1.85490        0.41780       -1.33350
H          1.40260        1.24520        2.15590
H          0.10910        0.36490        2.99620
H          1.78170       -0.22330        3.06580
H         -0.70540       -1.84150        2.21210
