14
gdb 15025	2.52211	1.84265	1.12159	4.6023	65.99	-0.3265	-0.0082	0.3183	1007.9529	0.107213	-341.588612	-341.58085	-341.579905	-341.621275	27.378
N         -0.26100       -1.03990        0.14730
C         -0.08690        0.09880        0.07400
C          0.09090        1.55650       -0.03510
C          1.52160        1.90480       -0.05540
N          2.63460        2.20940       -0.08520
C         -0.63790        2.11830       -1.25730
C         -2.10790        2.42400       -1.15630
C         -1.10590        3.54840       -1.23710
H         -0.34150        2.00650        0.86860
H         -0.26890        1.72190       -2.19660
H         -2.72510        2.21150       -2.02100
H         -2.60160        2.24870       -0.20620
H         -0.92240        4.13290       -0.34170
H         -1.02940        4.11440       -2.15780
