22
gdb 8880	4.00285	1.00676	0.96569	2.3918	78.76	-0.2363	-0.0059	0.2304	1368.7753	0.197317	-350.241575	-350.231015	-350.230071	-350.278334	36.83
C         -0.01390        1.57680        0.09380
C         -0.05340        0.04650        0.06600
C         -1.46480       -0.55140       -0.08750
C         -2.13940       -0.16600       -1.41990
C         -1.40000       -2.08050       -0.01900
O         -0.55760       -2.70270       -0.62740
C         -2.45610       -2.77320        0.83040
C         -2.41890       -4.29600        0.74430
H          1.00600        1.93240        0.27040
H         -0.35240        2.01440       -0.85020
H         -0.64710        1.97910        0.89300
H          0.57230       -0.33930       -0.74560
H          0.38800       -0.33910        0.99370
H         -2.09870       -0.19380        0.73500
H         -1.52680       -0.49890       -2.26340
H         -3.12700       -0.62930       -1.51720
H         -2.27620        0.91580       -1.49480
H         -2.31150       -2.42950        1.86550
H         -3.43890       -2.37500        0.54130
H         -3.17990       -4.74160        1.39110
H         -2.59570       -4.63340       -0.28060
H         -1.43970       -4.67700        1.04440
