15
gdb 15552	3.26131	2.0308	1.41483	1.848	66.47	-0.2568	0.0128	0.2696	870.4887	0.118492	-362.641533	-362.633939	-362.632995	-362.674016	27.776
C         -0.34310        1.53420       -0.06340
C          0.07140        0.07630       -0.08170
O          1.14170       -0.11100       -1.05130
C          2.10070       -0.81570       -0.41760
N          1.97680       -1.12360        0.80550
C          0.68490       -0.52820        1.23710
C          0.88570        0.42720        2.32350
C          1.03810        1.20930        3.22290
H          0.48370        2.16980        0.26130
H         -0.66180        1.84500       -1.06200
H         -1.17710        1.67970        0.62880
H         -0.76040       -0.55200       -0.41680
H          2.95110       -1.07590       -1.03890
H          0.04160       -1.33450        1.60690
H          1.18150        1.89530        4.02090
