14
gdb 4472	3.57602	1.85186	1.23758	3.6785	60.34	-0.2118	0.0292	0.241	927.0817	0.107329	-415.896971	-415.889255	-415.888311	-415.928671	28.362
C         -0.04810        1.52270        0.12880
C          0.00810        0.03850        0.02310
C         -0.03180       -0.72440       -1.09340
N         -0.13200       -0.43460       -2.44450
O          0.05350       -2.07450       -0.66420
C          0.13570       -1.96840        0.67300
O          0.22890       -3.10130        1.37210
N          0.11640       -0.77600        1.15850
H          0.85040        1.91160        0.62000
H         -0.13100        1.97130       -0.86330
H         -0.90570        1.83710        0.73330
H          0.67270       -0.73280       -2.98570
H         -0.97170       -0.80310       -2.87880
H          0.22270       -3.84040        0.75240
