24
gdb 6802	5.93659	0.70119	0.65575	0.7982	83.56	-0.2487	0.0879	0.3366	1834.1954	0.220905	-351.414863	-351.404003	-351.403059	-351.451352	38.13
C          0.03520        1.50230       -0.00550
C         -0.02860       -0.02690       -0.00990
C         -1.45820       -0.55040        0.01710
O         -1.42930       -1.96050        0.01160
C         -2.71070       -2.55150        0.03600
C         -2.56750       -4.07230       -0.01720
C         -3.93840       -4.74020        0.14360
C         -1.86690       -4.51900       -1.30600
H          1.07110        1.85290       -0.02370
H         -0.47360        1.92610       -0.87850
H         -0.44030        1.91950        0.88910
H          0.47100       -0.42630       -0.90000
H          0.50640       -0.43280        0.85640
H         -1.98380       -0.18070        0.91580
H         -2.02040       -0.17480       -0.85640
H         -3.25080       -2.25140        0.95090
H         -3.31190       -2.19910       -0.82240
H         -1.93700       -4.35980        0.83490
H         -4.61070       -4.46310       -0.67740
H         -3.84420       -5.83060        0.13700
H         -4.42190       -4.45160        1.08320
H         -2.47870       -4.27880       -2.18450
H         -0.90440       -4.01480       -1.41730
H         -1.69570       -5.60040       -1.30610
