16
gdb 6183	3.94342	1.53898	1.43389	4.1513	67.37	-0.2406	-0.0494	0.1912	919.9071	0.129323	-383.776531	-383.768771	-383.767827	-383.808606	29.402
C         -0.03100        1.55010        0.03050
C         -0.01710        0.01730       -0.00330
O         -1.35520       -0.48890       -0.03770
C          0.73820       -0.56070       -1.21620
C          1.96720       -1.28230       -0.64480
O          2.86870       -1.76960       -1.28350
C          1.82730       -1.26090        0.83380
C          0.74530       -0.56050        1.18160
H          0.98340        1.95790       -0.01140
H         -0.60140        1.93380       -0.82040
H         -0.49940        1.91630        0.95240
H         -1.84480       -0.09110        0.69110
H          0.10210       -1.28780       -1.72830
H          1.04110        0.19130       -1.94850
H          2.53060       -1.75730        1.49060
H          0.40180       -0.38630        2.19770
