12
gdb 11154	6.14198	1.38999	1.14146	2.9044	64.87	-0.2539	-0.0523	0.2016	953.9054	0.083899	-377.535723	-377.528858	-377.527914	-377.566843	25.312
O          0.03950       -0.01800        0.00400
C         -0.02080        1.18460        0.01020
C         -1.23240        2.12530        0.03170
N         -0.71520        3.49300        0.03040
C          0.56510        3.38370        0.01160
N          1.05120        2.07310       -0.00120
C          1.48430        4.47090        0.00340
C          2.29330        5.35970       -0.00420
H         -1.87310        1.94970       -0.83990
H         -1.84810        1.94180        0.91950
H          2.02100        1.80110       -0.01620
H          2.99410        6.15900       -0.01060
