16
gdb 17217	5.34244	1.67427	1.52151	0.9814	76.21	-0.2306	0.0423	0.2729	857.8412	0.131068	-309.385702	-309.379183	-309.378239	-309.415988	26.59
C          0.04440       -1.13480       -0.06450
C          0.01680        0.06820       -0.01620
C         -0.03800        1.48570        0.05630
C         -1.13560        2.35560        0.68290
C         -0.48630        3.54440       -0.07120
C          0.90030        3.70900        0.61260
C          1.24620        2.35810       -0.00590
C          0.18400        2.50380       -1.05900
H          0.07160       -2.19490       -0.10840
H         -2.11330        2.09160        0.27250
H         -1.19420        2.41800        1.77540
H         -1.07680        4.41100       -0.35780
H          1.48670        4.50870        0.15130
H          0.91680        3.81850        1.70280
H          2.21010        1.87520       -0.09660
H          0.19230        2.37330       -2.13100
