17
gdb 20545	4.39996	1.56833	1.26087	2.3849	69.13	-0.2561	0.0133	0.2693	982.3789	0.143952	-360.081757	-360.073974	-360.073029	-360.114416	28.439
C          0.01380        1.42670       -0.23930
C         -0.01430       -0.07500        0.10350
C          0.67720       -0.36650        1.43930
C         -1.42550       -0.59010        0.06660
N         -2.05680       -1.08340        1.12270
N         -3.27400       -1.39860        0.61440
C         -3.32470       -1.09110       -0.69590
N         -2.17630       -0.57720       -1.08150
H          1.04640        1.78300       -0.31130
H         -0.48760        1.61720       -1.19120
H         -0.49290        2.01040        0.53720
H          0.52650       -0.60080       -0.69490
H          0.16570        0.13990        2.26330
H          0.68100       -1.43640        1.66330
H          1.71300       -0.01440        1.41130
H         -3.97630       -1.80690        1.20840
H         -4.19700       -1.25750       -1.31050
