15
gdb 2192	3.84376	2.57461	1.76901	4.1896	56.78	-0.2678	0.0133	0.281	732.6435	0.124405	-345.693035	-345.685824	-345.68488	-345.724222	25.78
C         -0.27850        1.51880       -0.08880
C          0.07370        0.05010       -0.00790
O          1.29130       -0.25810       -0.78140
C          1.94360       -0.72750        0.32880
O          3.06170       -1.12670        0.40170
C          0.75270       -0.51820        1.26830
C          0.98080        0.34920        2.50020
H          0.55130        2.14900        0.24090
H         -0.52290        1.78990       -1.11990
H         -1.15130        1.73500        0.53600
H         -0.74510       -0.57150       -0.38150
H          0.32530       -1.48230        1.56120
H          1.43020        1.31300        2.24800
H          0.04090        0.53640        3.02850
H          1.65980       -0.16200        3.18830
