18
gdb 9484	2.94646	1.69132	1.48481	1.0306	74.23	-0.2545	0.0366	0.291	957.6928	0.15145	-347.76143	-347.752705	-347.751761	-347.794084	33.079
C         -0.00980        1.58220       -0.01420
C          0.07680        0.06620       -0.01530
C          1.09800       -0.65880       -0.93510
C          1.35490       -1.67640        0.20630
C          0.73930       -0.64940        1.21320
O          1.72990        0.22060        1.74950
C         -0.13210       -1.16700        2.25950
C         -0.83490       -1.61110        3.12940
H          0.96730        2.02940        0.18260
H         -0.36700        1.94300       -0.98500
H         -0.70490        1.93930        0.75290
H         -0.91540       -0.37310       -0.15810
H          0.72470       -1.05160       -1.88290
H          1.97490       -0.03640       -1.13010
H          0.73770       -2.57350        0.11750
H          2.38760       -1.96460        0.41600
H          2.16440       -0.24520        2.47210
H         -1.46220       -1.99590        3.89510
