17
gdb 18155	4.29273	1.48551	1.39412	2.1527	71.79	-0.2464	0.0237	0.2701	973.6356	0.141311	-363.831217	-363.823239	-363.822295	-363.863662	29.075
C         -0.12480        1.40430        0.02320
N         -0.06320       -0.04650        0.13010
C         -1.11260       -0.71230        0.01010
O         -2.43750       -0.28520       -0.20350
C         -2.89800       -1.64720       -0.02390
C         -2.36300       -2.52920       -1.09770
C         -2.11460       -2.08900       -2.52170
C         -1.47570       -2.15590        0.10320
H          0.46660        1.72460       -0.84200
H         -1.14060        1.80340       -0.07870
H          0.34240        1.84680        0.90940
H         -3.77680       -1.79020        0.59070
H         -2.71550       -3.55460       -0.99270
H         -1.86110       -1.02810       -2.56770
H         -1.29500       -2.65930       -2.96920
H         -3.01010       -2.24770       -3.13170
H         -1.02580       -2.88660        0.75920
