18
gdb 9364	7.94919	0.73083	0.68062	2.8024	66.04	-0.247	-0.0116	0.2354	1618.7786	0.14993	-422.06967	-422.059544	-422.0586	-422.106804	33.244
C          0.08150        1.33740        0.00780
O          0.01110       -0.06830        0.00130
C         -1.31660       -0.54700        0.01150
C         -1.26050       -2.06740        0.00310
C         -2.63930       -2.70890        0.01290
O         -3.65830       -2.06360        0.02650
C         -2.64330       -4.23630        0.00420
O         -3.96420       -4.70730        0.01470
H          1.13900        1.61270       -0.00080
H         -0.40750        1.77570       -0.87660
H         -0.39060        1.76660        0.90580
H         -1.85770       -0.19060        0.90160
H         -1.87440       -0.18150       -0.86460
H         -0.70480       -2.41490       -0.87760
H         -0.68840       -2.42390        0.86960
H         -2.07910       -4.56470       -0.88640
H         -2.06150       -4.57470        0.87970
H         -3.93770       -5.66840        0.00900
