17
gdb 9706	3.06738	1.78836	1.59727	4.0785	73.42	-0.2635	-0.0023	0.2612	899.016	0.143005	-326.760014	-326.752308	-326.751364	-326.791962	28.936
C         -0.06620        1.53560       -0.01090
C          0.00190       -0.00490        0.00270
C          0.80530       -0.58850       -1.20890
C          1.62490       -1.77440       -0.64730
C          1.64600       -1.50170        0.83640
C          0.77450       -0.56360        1.19440
C         -1.37180       -0.54070        0.02200
N         -2.44990       -0.95910        0.03950
H          0.94780        1.94410        0.01840
H         -0.56440        1.89620       -0.91540
H         -0.61840        1.91350        0.85410
H          0.15500       -0.86560       -2.04040
H          1.48270        0.19350       -1.56450
H          1.14400       -2.74000       -0.85260
H          2.62690       -1.82900       -1.08590
H          2.28420       -2.04690        1.52300
H          0.57070       -0.22480        2.20340
