12
gdb 20639	7.47132	1.28807	1.10622	5.6316	63.89	-0.2828	-0.0585	0.2243	994.0058	0.084132	-377.535811	-377.528859	-377.527915	-377.56734	24.355
C          0.04510        1.50020        0.00660
C         -0.08900        0.02090        0.05280
C         -1.11280       -0.84090       -0.18920
C         -0.53360       -2.11910        0.04790
N          0.73480       -2.03170        0.40320
O          1.00880       -0.68190        0.40450
C         -1.16660       -3.39130       -0.05970
N         -1.71900       -4.40200       -0.15930
H          0.81590        1.79850       -0.71090
H         -0.90230        1.95340       -0.28930
H          0.33250        1.89540        0.98590
H         -2.12210       -0.61710       -0.48850
