18
gdb 20836	5.17317	1.28732	1.12296	2.0006	75.67	-0.2292	0.0284	0.2576	1116.9358	0.154788	-344.017359	-344.008917	-344.007973	-344.051885	29.648
C         -0.49080        1.39720        0.14130
C          0.37460        0.14450       -0.07650
C          0.88140       -0.45060        1.20350
N          2.15570       -0.29400        1.56710
N          2.26490       -0.91430        2.76000
C          3.54600       -0.96150        3.42780
C          1.09240       -1.46380        3.16000
C          0.16560       -1.18520        2.17870
H          0.08090        2.17870        0.65090
H         -0.84380        1.79940       -0.81370
H         -1.36740        1.17080        0.75680
H         -0.20810       -0.60690       -0.62340
H          1.23770        0.39570       -0.70060
H          3.94380        0.04970        3.54540
H          3.41610       -1.41390        4.41250
H          4.26200       -1.55480        2.85110
H          1.01410       -2.00240        4.09160
H         -0.87440       -1.46950        2.16670
