13
gdb 15447	3.31963	1.97832	1.34043	5.9396	64.73	-0.2646	-0.0701	0.1945	864.2393	0.096537	-361.509758	-361.502961	-361.502017	-361.541352	24.549
O         -0.01010       -0.01110        0.16650
C         -0.06280        1.18660        0.08600
C         -1.25110        2.05320       -0.03600
C         -0.90170        3.34400       -0.04790
C          0.58260        3.57350        0.07230
C          1.18200        2.14430        0.05800
C          2.11680        1.87350        1.13900
N          2.85230        1.67870        2.00890
H         -2.25150        1.64540       -0.09270
H         -1.59360        4.17560       -0.12420
H          0.96660        4.19090       -0.74650
H          0.82100        4.10520        0.99990
H          1.69210        1.94930       -0.89240
