12
gdb 994	3.99575	3.21991	1.78313	2.9398	51.69	-0.1861	0.0534	0.2395	646.5172	0.090062	-360.531175	-360.524066	-360.523122	-360.562402	25.271
O          0.06680        1.38040       -0.07170
C          0.05190        0.01620       -0.05000
C         -0.03410       -0.82160       -1.13710
N         -0.01420       -2.11280       -0.65910
C          0.08050       -2.11460        0.71420
C          0.12360       -0.79730        1.11230
O          0.21190       -0.23110        2.35840
H          0.14500        1.67650        0.84210
H         -0.10420       -0.60060       -2.18810
H         -0.06320       -2.93510       -1.23050
H          0.10870       -3.03010        1.28180
H          0.32800       -0.92150        3.01680
