16
gdb 19833	3.36058	2.65483	1.81214	1.8709	68.65	-0.238	0.0019	0.2399	748.2046	0.133122	-346.584834	-346.578892	-346.577948	-346.61455	24.567
C         -0.03400        1.53350        0.01200
C          1.30160        0.80800        0.00150
C          2.16380        0.75530        1.19700
C          1.84050        0.10250        2.32120
C          0.57450       -0.64690        2.45720
O         -0.66760        0.10200        2.45340
C         -0.35780       -0.68760        1.30890
C         -0.01480        0.03300        0.03830
H         -0.32310        2.02860        0.93080
H         -0.33850        2.02460       -0.90530
H          1.83090        0.83270       -0.94650
H          3.12240        1.26390        1.13200
H          2.52650        0.08680        3.16240
H          0.56870       -1.46830        3.17180
H         -0.98630       -1.56940        1.18860
H         -0.29550       -0.49260       -0.86780
