17
gdb 4917	6.35758	1.26646	1.07575	2.6	72.76	-0.1729	0.0434	0.2163	1110.1914	0.143224	-360.085305	-360.076851	-360.075907	-360.118671	30.273
C          0.08230        1.36870        0.14180
N         -0.19200       -0.02650       -0.13390
C          0.54120       -0.64580       -1.13660
C          1.23690       -0.08750       -2.18320
N          1.72090       -1.17910       -2.89850
C          1.31920       -2.30910       -2.26060
C          1.65760       -3.68480       -2.73020
N          0.60380       -2.01910       -1.19050
H          1.14500        1.57850        0.35020
H         -0.21490        1.98280       -0.71670
H         -0.51340        1.69260        0.99840
H         -0.25680       -0.61350        0.68560
H          1.42380        0.92630       -2.48910
H          2.27980       -1.13310       -3.73300
H          2.74050       -3.85210       -2.76530
H          1.22080       -4.40620       -2.03860
H          1.26030       -3.88470       -3.73230
