20
gdb 11828	3.09799	1.79407	1.45696	1.4267	74.75	-0.2485	0.0711	0.3195	960.7348	0.176725	-348.982056	-348.973741	-348.972797	-349.014463	32.231
C         -0.33760        1.42530        0.03650
C         -0.02750       -0.06750       -0.01680
C          1.20370       -0.43790       -0.90450
C          2.03630       -0.60240        0.37370
C          3.31810       -1.34010        0.59830
C          3.28010        0.16550        0.72960
C          0.75950       -0.60940        1.22750
O          0.73290        0.10150        2.44040
H          0.57010        2.02310        0.18560
H         -0.79070        1.76050       -0.90190
H         -1.03230        1.65650        0.85040
H         -0.94170       -0.62440       -0.24120
H          1.07030       -1.37570       -1.45240
H          1.53330        0.33210       -1.60880
H          3.41750       -1.92490        1.50770
H          3.82130       -1.76470       -0.26480
H          3.75500        0.76400       -0.04160
H          3.35010        0.58070        1.73090
H          0.44620       -1.62670        1.48370
H          1.04340        0.99630        2.26480
