13
gdb 5475	3.50071	1.92529	1.25176	2.517	64.11	-0.2605	-0.0663	0.1942	898.9114	0.095641	-398.648819	-398.641751	-398.640807	-398.680482	24.69
C         -0.00720        1.51990        0.12230
C          0.01720        0.03530       -0.00100
C         -0.00440       -0.76160       -1.11780
O          0.03480       -2.07040       -0.69220
C          0.07720       -1.98250        0.64200
N          0.06990       -0.77620        1.12090
C         -0.05700       -0.47980       -2.54130
O         -0.07010       -1.31260       -3.41940
H          0.88480        1.87010        0.65170
H         -0.04880        2.01060       -0.85180
H         -0.87500        1.83630        0.71000
H          0.11320       -2.91120        1.19120
H         -0.08520        0.60790       -2.76560
