18
gdb 15658	3.61725	1.74793	1.34242	1.7642	69.34	-0.2495	0.0136	0.2631	951.072	0.15382	-384.936246	-384.928224	-384.92728	-384.968836	29.846
C         -0.60260        0.95540       -0.00900
O          0.55020        0.14010        0.12650
C          0.95160       -0.49090       -1.08350
C          2.35940       -1.00850       -0.95620
C          2.47080       -2.25930       -1.39670
C          1.15750       -2.81400       -1.88960
C          0.11180       -1.78300       -1.39210
O         -0.52790       -2.24080       -0.21630
H         -0.44890        1.73330       -0.77070
H         -1.48940        0.36570       -0.27570
H         -0.77090        1.43400        0.95850
H          0.86530        0.23690       -1.90680
H          3.15750       -0.38580       -0.57020
H          3.39570       -2.82490       -1.43260
H          1.15200       -2.89620       -2.98510
H          0.92490       -3.80720       -1.49200
H         -0.65800       -1.59710       -2.15030
H         -0.22580       -1.65900        0.49520
