17
gdb 2688	10.77854	0.86876	0.82045	0.7785	70.9	-0.2413	0.043	0.2843	1417.4841	0.145323	-309.686648	-309.677328	-309.676384	-309.723916	30.209
C         -0.01950        1.51700        0.00400
C          0.01440       -0.00150       -0.01910
O          0.68120       -0.41500       -1.19510
C          0.76200       -1.82350       -1.30370
C          1.45570       -2.19670       -2.52890
C          2.02640       -2.52650       -3.53540
C          2.71810       -2.91910       -4.75430
H          0.99610        1.92230       -0.00430
H         -0.54850        1.90100       -0.87270
H         -0.53020        1.87370        0.90350
H          0.53550       -0.39160        0.87240
H         -1.00970       -0.41290        0.00380
H          1.29080       -2.24420       -0.43000
H         -0.25010       -2.26590       -1.29610
H          2.74870       -4.00960       -4.85560
H          2.21820       -2.51820       -5.64290
H          3.75190       -2.55680       -4.76100
