18
gdb 15383	3.78534	1.08904	0.91924	1.661	74.86	-0.2593	0.0213	0.2806	1291.4356	0.151198	-347.754057	-347.745064	-347.74412	-347.788288	32.274
C         -0.16260        1.51660        0.03240
C         -0.15510       -0.00060       -0.16780
C          1.06080       -0.48930       -0.96780
C          1.05260       -1.98430       -1.15790
O          0.11050       -2.51920       -2.08850
C          1.50840       -2.65590       -2.39710
C          2.01670       -1.93130       -3.53120
C          2.46980       -1.35790       -4.48590
H          0.72820        1.85010        0.57680
H         -0.17750        2.04180       -0.92900
H         -1.04030        1.83820        0.60120
H         -0.17390       -0.50120        0.80930
H         -1.06600       -0.31370       -0.69110
H          1.08640       -0.00390       -1.94890
H          1.98730       -0.20950       -0.44800
H          1.13650       -2.57240       -0.24040
H          1.87890       -3.67730       -2.30920
H          2.86210       -0.84750       -5.33070
