20
gdb 15068	2.65507	1.47963	1.04292	2.7342	75.81	-0.2415	-0.0172	0.2243	1180.4325	0.175078	-349.006007	-348.996691	-348.995746	-349.040973	32.997
C         -0.15150        1.53440       -0.05110
C         -0.01360        0.00990       -0.10260
C          0.82900       -0.49790       -1.29130
C          2.27660       -0.07330       -1.12760
O          2.88890        0.63770       -1.88170
C          0.77770       -2.01480       -1.40790
C         -0.31410       -2.67530       -2.21260
C          1.10860       -2.69200       -2.71420
H          0.82300        2.02800        0.02510
H         -0.64030        1.91580       -0.95390
H         -0.75080        1.84440        0.81020
H          0.43320       -0.35660        0.83200
H         -1.00390       -0.45520       -0.16630
H          0.46610       -0.04780       -2.22310
H          2.76480       -0.49420       -0.21420
H          1.08650       -2.53900       -0.50620
H         -0.74100       -3.59940       -1.83870
H         -1.02410       -2.03340       -2.72380
H          1.35520       -2.05820       -3.55950
H          1.65540       -3.62790       -2.68680
