12
gdb 883	6.80041	2.23383	1.69925	4.7534	52.51	-0.2119	0.0277	0.2397	692.3648	0.090742	-360.576433	-360.57016	-360.569216	-360.606411	22.713
C          0.06760        1.48300        0.03310
C         -0.08220        0.00950        0.00670
C         -1.11830       -0.81080       -0.21490
N         -0.62850       -2.11480       -0.10310
C          0.71540       -2.09380        0.18830
O          1.48600       -2.99800        0.35910
O          1.04880       -0.75050        0.25520
H          0.79410        1.82180       -0.71390
H         -0.89270        1.95940       -0.17750
H          0.41910        1.82900        1.01160
H         -2.14820       -0.59300       -0.43850
H         -1.14020       -2.97170       -0.21120
