18
gdb 15806	5.56036	1.01933	0.98438	3.6198	70.87	-0.2499	0.0203	0.2702	1252.4873	0.154469	-381.133398	-381.124623	-381.123679	-381.168056	30.875
C         -0.25410        1.35870        0.14170
C          0.39670        0.02450       -0.22950
N          1.10830       -0.58900        0.88170
C          0.64970       -1.68570        1.54240
O         -0.37030       -2.28650        1.23300
C          1.49710       -2.13880        2.69810
C          0.76610       -2.54820        3.93410
N          1.38150       -3.55420        3.07280
H          0.49160        2.08710        0.47900
H         -0.76910        1.78500       -0.72500
H         -0.98470        1.22230        0.94400
H         -0.35950       -0.69970       -0.53890
H          1.09240        0.16090       -1.06630
H          1.94100       -0.13820        1.22580
H          2.49610       -1.71750        2.78260
H          1.24170       -2.40640        4.90030
H         -0.31470       -2.44460        3.91580
H          0.65210       -3.94600        2.47500
