16
gdb 10568	2.58672	1.88538	1.31209	1.1487	78.35	-0.2349	0.0298	0.2647	978.8897	0.127118	-309.389892	-309.381211	-309.380267	-309.422473	32.653
C         -0.09460        1.52040       -0.03080
C          0.02770        0.01650        0.00330
C          1.33200       -0.67080       -0.22650
C          0.72220       -0.69710        1.18710
C          1.35330        0.10290        2.20580
C          1.87970        0.77140        3.05550
C          0.14150       -1.93680        1.63740
C         -0.35220       -2.97230        1.99730
H          0.79110        2.00110        0.39170
H         -0.21360        1.86750       -1.06290
H         -0.96400        1.85810        0.54210
H         -0.84900       -0.52340       -0.34140
H          1.34930       -1.61450       -0.75830
H          2.21930       -0.05800       -0.34020
H          2.34370        1.35320        3.81280
H         -0.78410       -3.88470        2.32620
