17
gdb 9788	2.92783	1.83991	1.3414	3.5384	67.86	-0.2939	0.0135	0.3074	946.6177	0.140957	-363.860817	-363.852274	-363.851329	-363.893586	31.553
C         -0.17690        1.49700        0.30310
C          0.02620        0.02600       -0.00900
C          1.41100       -0.45070       -0.39300
C          0.83170       -0.80750        0.95500
C         -1.17730       -0.58610       -0.72450
O         -1.43390        0.03270       -1.97440
C         -1.05840       -2.05180       -0.89280
N         -0.95250       -3.19190       -1.04920
H          0.72380        1.92550        0.75100
H         -0.41290        2.06170       -0.60320
H         -1.00210        1.63860        1.01100
H          1.50580       -1.25470       -1.11590
H          2.20170        0.28990       -0.44070
H          1.22020       -0.30370        1.83330
H          0.54970       -1.84140        1.11810
H         -2.07910       -0.40070       -0.12820
H         -0.63030       -0.04040       -2.50380
