17
gdb 12673	2.68193	2.30176	1.52809	2.5289	64.72	-0.2684	0.0193	0.2878	866.6357	0.143087	-401.022703	-401.015004	-401.01406	-401.054497	29.069
C          0.64170        1.47960       -0.04080
C         -0.02860        0.10550        0.03110
C          0.38130       -0.82250       -1.12700
O          1.61290       -1.46220       -0.70440
C          1.72670       -1.36640        0.64040
N          2.71770       -1.69550        1.35000
C          0.47640       -0.73660        1.22260
O          0.73340       -0.03040        2.40260
H          1.72850        1.38790       -0.14100
H          0.26900        2.04510       -0.90030
H          0.44170        2.04810        0.86920
H         -1.11540        0.22140        0.05940
H         -0.36470       -1.60170       -1.32170
H          0.59280       -0.29380       -2.05900
H          3.48790       -2.06930        0.79630
H         -0.24930       -1.54830        1.40910
H          1.58750       -0.36200        2.72010
