15
gdb 5593	3.3098	1.91377	1.27565	1.0151	63.66	-0.1754	0.0588	0.2342	926.3273	0.11877	-399.811232	-399.803246	-399.802302	-399.843777	29.064
C          0.13120        1.14220        0.34130
O         -0.44630        0.08420       -0.41190
C          0.40750       -0.50380       -1.31470
C          0.72710       -1.83940       -1.26100
O          0.35910       -2.81260       -0.39220
N          1.53370       -2.13120       -2.32160
C          1.74680       -0.98210       -3.06240
C          1.05720        0.04330       -2.46420
H          1.01200        0.80040        0.90130
H          0.43050        1.97820       -0.30370
H         -0.63470        1.48950        1.03930
H         -0.25820       -2.40100        0.22510
H          1.89140       -3.04760       -2.52490
H          2.36830       -1.00160       -3.94140
H          1.01600        1.06560       -2.80600
