15
gdb 1534	8.63777	1.19061	1.07073	4.7834	55.28	-0.2453	-0.011	0.2343	1065.3302	0.121404	-382.773457	-382.764788	-382.763844	-382.807335	28.328
C         -0.10260        1.39070       -0.02480
O         -0.00490       -0.01150       -0.11680
C         -1.22430       -0.65430        0.08810
C         -1.03530       -2.17050        0.04260
O          0.03990       -2.70080        0.10060
C         -2.34480       -2.94880       -0.08020
O         -2.10960       -4.30680        0.17770
H          0.89740        1.79520       -0.19550
H         -0.78890        1.80500       -0.78060
H         -0.45290        1.71120        0.96920
H         -1.65940       -0.40280        1.07480
H         -1.98080       -0.35580       -0.66200
H         -3.08370       -2.50290        0.60910
H         -2.72660       -2.76940       -1.10150
H         -2.92920       -4.78620        0.02630
