14
gdb 17225	5.43501	1.73748	1.57186	5.2791	66.57	-0.2657	0.0108	0.2765	803.8013	0.109159	-341.526772	-341.520781	-341.519837	-341.55677	23.47
N          0.03960       -1.10710       -0.11580
C          0.01960        0.04840       -0.06750
C         -0.06330        1.47080        0.00020
C         -1.19250        2.31790        0.59690
C         -0.48490        3.52310       -0.07490
C          0.86600        3.55820        0.66260
N          1.23930        2.25220        0.01950
C          0.23400        2.50160       -1.03830
H         -2.14110        2.07330        0.11500
H         -1.31310        2.33680        1.68400
H         -1.03970        4.41780       -0.34550
H          1.55280        4.31900        0.28540
H          0.86270        3.56000        1.75760
H          0.41750        2.41960       -2.10110
