22
gdb 13416	5.33911	0.93804	0.84226	1.3794	78.06	-0.2609	0.0803	0.3412	1400.8451	0.201616	-350.21991	-350.210874	-350.20993	-350.254709	32.76
O         -0.00730        1.44660       -0.17580
C          0.04780        0.03200       -0.05420
C         -1.38290       -0.48660        0.02410
C         -1.48650       -2.01100        0.09450
C         -0.88460       -2.65410        1.36630
C         -1.61870       -4.01340        1.54860
C         -2.77690       -4.01410        0.51430
C         -2.92990       -2.54420        0.09330
H          0.89370        1.78130       -0.19890
H          0.55870       -0.42170       -0.92040
H          0.60880       -0.26550        0.84570
H         -1.86920       -0.04030        0.90150
H         -1.92390       -0.11470       -0.85490
H         -0.97480       -2.43620       -0.78250
H          0.20090       -2.77250        1.30390
H         -1.08010       -2.00010        2.22510
H         -0.94700       -4.86190        1.39010
H         -2.00180       -4.10940        2.56880
H         -2.50120       -4.61710       -0.35840
H         -3.70020       -4.44170        0.91500
H         -3.52090       -1.99330        0.83770
H         -3.43010       -2.42140       -0.87240
