16
gdb 8247	6.34838	1.034	0.92871	2.4305	70.87	-0.244	-0.0223	0.2218	1193.5329	0.128033	-346.579963	-346.571816	-346.570872	-346.61342	29.771
O          0.13020        0.06280        0.33110
C          0.03620        1.21840        0.03800
C         -1.15020        2.19010       -0.09060
C         -0.17960        3.20070       -0.77980
C         -0.16330        4.62550       -0.21240
C          0.88560        5.45440       -0.79510
C          1.76070        6.11170       -1.29210
C          1.03660        2.28490       -0.43430
H         -2.00620        1.82650       -0.66480
H         -1.50950        2.52580        0.88940
H         -0.34630        3.24190       -1.85870
H         -1.14090        5.09600       -0.37980
H         -0.03060        4.57970        0.87760
H          2.52960        6.70320       -1.72370
H          1.65160        2.66640        0.38900
H          1.70290        1.98870       -1.24790
