14
gdb 10464	2.91711	1.78072	1.39618	4.9096	63.18	-0.2693	-0.0003	0.2689	904.9501	0.106993	-378.740657	-378.732893	-378.731949	-378.773352	27.617
O         -0.10070        0.46930       -1.07670
C         -0.01480        1.29550       -0.20110
N          1.15260        1.69650        0.40150
C          2.41930        1.07090        0.16430
C          2.93860        1.03550       -1.26030
C          3.57750        1.96190       -0.27620
C          2.73180       -0.04330        1.03400
N          2.98270       -0.91580        1.75060
H         -0.88210        1.85520        0.20160
H          1.07710        2.30710        1.20180
H          3.47380        0.14280       -1.55860
H          2.26950        1.43990       -2.00750
H          3.35250        3.01990       -0.34250
H          4.55950        1.71870        0.11090
