15
gdb 15020	2.48554	1.99077	1.15831	1.4074	73.17	-0.2468	0.0192	0.2659	1004.6289	0.115815	-325.407464	-325.39918	-325.398236	-325.440256	30.47
C         -0.20750       -1.08520        0.06260
C         -0.04770        0.10320        0.01280
C          0.11870        1.56120       -0.02460
C          1.53590        1.94260       -0.05340
C          2.68830        2.27790       -0.05820
N         -0.57770        2.11850       -1.19900
C         -2.00430        2.37100       -1.00910
C         -1.03340        3.49880       -1.04970
H         -0.33760       -2.13860        0.09900
H         -0.31390        1.96740        0.91150
H          3.71100        2.56410       -0.06930
H         -2.63360        2.14680       -1.86460
H         -2.44360        2.12460       -0.04410
H         -0.82110        4.00910       -0.11180
H         -0.93610        4.11850       -1.93560
