13
gdb 15488	3.5643	1.98596	1.28548	0.992	62.55	-0.2644	-0.047	0.2174	869.4691	0.096883	-394.82106	-394.814327	-394.813383	-394.852294	24.212
N         -0.11380        1.29610        0.00750
C         -0.01930        0.03660        0.00050
C         -1.18200       -0.94840        0.00210
N         -0.59620       -2.29260       -0.00820
C          0.66480       -2.14580       -0.01470
N          1.12650       -0.81180       -0.01050
C          2.46050       -0.44640       -0.01660
O          3.37230       -1.23530       -0.02620
H          0.78500        1.77790        0.00490
H         -1.81340       -0.81200        0.88620
H         -1.82350       -0.80300       -0.87330
H          1.40070       -2.93980       -0.02300
H          2.59940        0.64870       -0.01200
