16
gdb 13204	4.23775	1.33721	1.13871	3.4037	61.09	-0.255	-0.0327	0.2223	1043.9925	0.129096	-420.864344	-420.856177	-420.855233	-420.898294	28.414
O         -0.30720        1.34810       -0.75900
C         -0.85930        0.06660       -0.71550
C         -0.73830       -0.53080        0.67400
O         -0.21510        0.10240        1.56740
C         -1.29350       -1.91870        0.91880
C         -2.65770       -1.98830        1.65430
C         -3.13380       -2.72040        0.38300
O         -1.84670       -2.54120       -0.25590
H          0.01840        1.51600        0.14000
H         -1.92390        0.07060       -1.00020
H         -0.37020       -0.61920       -1.42590
H         -0.50320       -2.52780        1.37650
H         -2.65870       -2.56840        2.57650
H         -3.12360       -1.01930        1.83810
H         -3.37210       -3.78180        0.51480
H         -3.93880       -2.23990       -0.18330
