16
gdb 7118	7.33647	0.95256	0.85206	4.1256	65.8	-0.2529	0.0008	0.2537	1326.1363	0.129773	-417.10128	-417.092304	-417.09136	-417.13597	30.267
C          0.01670        1.57190       -0.25230
C         -0.04900        0.07520       -0.01660
O          0.57000       -0.56920       -1.14540
C          0.59290       -1.92610       -1.08720
O          0.14840       -2.58840       -0.19180
N          1.21770       -2.37760       -2.24220
C          1.47370       -3.68690       -2.63110
N          1.16020       -4.71230       -1.95750
H          1.05340        1.90900       -0.34140
H         -0.51560        1.84790       -1.16700
H         -0.44570        2.09880        0.58750
H          0.48010       -0.21930        0.89510
H         -1.08020       -0.28010        0.07420
H          1.51830       -1.64940       -2.86960
H          1.98460       -3.69320       -3.60250
H          1.45500       -5.55050       -2.45540
