11
gdb 1582	4.80833	2.14901	1.49881	0.3006	54.54	-0.2548	-0.1036	0.1512	756.6609	0.074554	-343.242553	-343.23493	-343.233986	-343.274929	25.448
C          0.31290        1.42090        0.07970
C          0.22320       -0.08330        0.08500
O          0.07010       -0.76290        1.06950
C          0.34240       -0.75870       -1.30380
O          0.49640       -0.09420       -2.30540
C          0.25770       -2.20080       -1.31050
C          0.19030       -3.40200       -1.34360
H          1.26430        1.73880       -0.35860
H         -0.47140        1.84150       -0.55770
H          0.21820        1.79590        1.09870
H          0.12970       -4.46330       -1.36820
