8
gdb 23876	3.23748	1.75638	1.4251	1.2972	39.07	-0.3347	-0.1289	0.2058	794.6873	0.032052	-543.763269	-543.75609	-543.755146	-543.79615	23.438
F          0.04130        0.06970       -0.06910
C         -0.01710        1.38510        0.00990
F          1.21860        1.88980        0.01570
F         -0.66860        1.87010       -1.04930
C         -0.75180        1.82160        1.30400
O         -1.19010        1.04110        2.09730
C         -0.85640        3.27650        1.46010
N         -0.93900        4.42270        1.58350
