17
gdb 15882	2.8162	1.86948	1.24408	4.5353	64.89	-0.2553	0.026	0.2813	976.4901	0.142212	-401.020645	-401.012345	-401.011401	-401.053476	30.252
C         -0.08330        1.56570       -0.21590
C          0.00140        0.06040       -0.00360
N          1.08760       -0.62050       -0.73620
C          1.73960       -1.08020        0.37440
O          2.78590       -1.65840        0.55050
C          0.66390       -0.49340        1.30750
C          1.26860        0.42320        2.37180
O          2.07930       -0.33880        3.24390
H          0.88120        2.05290       -0.05150
H         -0.40620        1.79130       -1.23780
H         -0.81750        2.00650        0.46610
H         -0.97520       -0.39710       -0.19940
H          1.34040       -0.63050       -1.71410
H          0.06850       -1.26910        1.79580
H          1.84160        1.23560        1.89820
H          0.48870        0.88740        2.98510
H          2.69170       -0.84320        2.68970
