18
gdb 18598	3.39725	2.12198	1.73075	0.7767	66.81	-0.2443	0.0887	0.333	829.1056	0.155259	-384.935462	-384.928378	-384.927434	-384.966647	27.236
C          0.30260        1.58020        0.14350
C          0.13840        0.07810        0.09670
O          1.04390       -0.58810       -0.82820
C          1.37970       -1.59660        0.15420
C          2.84820       -1.58820        0.55020
C          2.93390       -0.34010        1.44130
O          1.65940       -0.22920        2.08590
C          0.66040       -0.79820        1.26360
H          1.28940        1.86470        0.51350
H          0.16520        2.00240       -0.85690
H         -0.45050        2.01910        0.80620
H         -0.90030       -0.18410       -0.15510
H          0.98570       -2.58060       -0.11870
H          3.07800       -2.49470        1.12030
H          3.51040       -1.54080       -0.31750
H          3.69360       -0.40760        2.22440
H          3.13840        0.55100        0.83380
H         -0.08620       -1.27220        1.90340
