24
gdb 14871	3.39676	1.20481	0.97921	0.1126	85.44	-0.2783	0.0848	0.3631	1319.2054	0.22345	-314.272822	-314.263299	-314.262354	-314.30694	35.568
C          0.08210        1.73160       -0.10130
C         -0.31960        0.27180       -0.34230
C          0.71220       -0.49160       -1.16490
C          2.10760       -0.79450       -0.54910
C          2.08340       -2.17440       -1.25790
C          0.54340       -2.02350       -1.45340
C         -0.29750       -2.81410       -0.44780
C         -0.33580       -4.31430       -0.75810
H          1.03860        1.79650        0.42850
H          0.19240        2.27290       -1.04770
H         -0.66660        2.25840        0.49870
H         -0.46760       -0.22680        0.62370
H         -1.29110        0.24120       -0.85390
H          0.85060        0.02720       -2.12230
H          2.92950       -0.11570       -0.79010
H          2.05430       -0.89270        0.54040
H          2.62510       -2.15920       -2.20770
H          2.42780       -3.03810       -0.68190
H          0.18270       -2.25170       -2.46300
H          0.09220       -2.66300        0.56750
H         -1.32250       -2.42220       -0.44080
H         -0.77490       -4.50030       -1.74480
H          0.66920       -4.74960       -0.75840
H         -0.93250       -4.85890       -0.01960
