13
gdb 8868	2.47321	1.96674	1.20255	2.7279	56.34	-0.2825	-0.1017	0.1808	941.8838	0.09305	-435.73865	-435.730101	-435.729156	-435.772282	29.181
O          0.43440        0.28880        0.98090
C         -0.12990        0.27350       -0.30910
C         -1.50390       -0.44720       -0.37780
O         -2.01020       -0.35700       -1.67670
C         -1.37680       -1.90630        0.02900
O         -1.53570       -2.79820       -0.77310
C         -1.08330       -2.20190        1.43450
N         -0.91670       -2.45530        2.55030
H         -0.06480        0.89620        1.53640
H         -0.27880        1.27730       -0.72770
H          0.57410       -0.25470       -0.95950
H         -2.18810        0.04020        0.33690
H         -2.02910       -1.25970       -2.03050
