20
gdb 12503	3.38588	1.74009	1.21284	0.7373	86.25	-0.2024	-0.0147	0.1877	1041.5598	0.178954	-311.894944	-311.887066	-311.886122	-311.927382	30.37
C          0.00480        1.55000        0.04180
C          0.02080        0.04630       -0.04190
C          0.04510       -0.57040       -1.23640
C          0.01140       -1.99250       -1.56600
C          0.08600       -3.08300       -0.78770
C          0.28800       -3.17430        0.69740
C          0.85880       -1.93420        1.39080
C         -0.00770       -0.66790        1.29070
H          0.89020        1.92690        0.57160
H         -0.02570        2.01630       -0.94630
H         -0.86500        1.90330        0.61240
H          0.05300        0.07720       -2.11150
H         -0.11340       -2.18040       -2.63120
H         -0.00380       -4.04560       -1.28840
H         -0.66480       -3.45630        1.17230
H          0.95820       -4.02190        0.89810
H          0.99970       -2.17500        2.45100
H          1.85410       -1.71700        0.98610
H          0.31820        0.03810        2.06420
H         -1.04880       -0.91530        1.54690
