22
gdb 16763	4.73332	1.27265	1.12767	0.2439	81.11	-0.2575	0.0807	0.3381	1152.2022	0.202161	-313.076974	-313.068942	-313.067998	-313.109429	31.435
C         -0.01650        1.52870        0.12020
C         -0.00160        0.00120        0.00080
C          0.73230       -0.52090       -1.23710
C          2.25070       -0.19900       -1.29000
C          2.87190       -1.30040       -2.15070
C          3.17720       -2.61660       -1.48180
C          1.88130       -2.44680       -2.23320
C          0.64530       -2.05900       -1.42130
H          0.99700        1.93580        0.19750
H         -0.49100        1.98830       -0.75440
H         -0.57120        1.85230        1.00660
H          0.46270       -0.43360        0.89710
H         -1.03520       -0.36910       -0.01430
H          0.27590       -0.06330       -2.12630
H          2.43960        0.79260       -1.71080
H          2.67850       -0.19690       -0.27810
H          3.46710       -1.01540       -3.01110
H          3.94260       -3.24520       -1.92570
H          3.14000       -2.66300       -0.39630
H          1.74770       -3.00260       -3.15460
H          0.63820       -2.56250       -0.44540
H         -0.28080       -2.34710       -1.92790
