22
gdb 15836	4.11405	1.02372	0.87475	1.0032	79.43	-0.2501	0.0922	0.3423	1388.7143	0.198789	-350.185539	-350.175849	-350.174905	-350.220278	34.861
C          0.12660        1.32690        0.05690
O         -0.01620       -0.06990       -0.00750
C          0.67720       -0.64600       -1.09470
C          0.43800       -2.15710       -1.10090
C         -1.05320       -2.48640       -1.25100
C          1.26940       -2.81380       -2.18770
C          2.72880       -3.12570       -1.96670
C          1.71990       -4.24540       -2.04980
H          1.18070        1.62650        0.17470
H         -0.26810        1.82170       -0.84520
H         -0.43740        1.67650        0.92550
H          0.32950       -0.20430       -2.04660
H          1.75670       -0.43420       -1.01570
H          0.78210       -2.53720       -0.12880
H         -1.22240       -3.56560       -1.18910
H         -1.63810       -1.99280       -0.47170
H         -1.42980       -2.14490       -2.22300
H          1.00190       -2.50270       -3.19600
H          3.42040       -2.99140       -2.79110
H          3.15250       -2.90070       -0.99290
H          1.46970       -4.76750       -1.13170
H          1.72060       -4.87660       -2.93150
