14
gdb 19393	3.34094	2.29744	1.63438	3.2016	62.62	-0.2524	-0.0238	0.2286	781.8468	0.108024	-378.665285	-378.658752	-378.657808	-378.695937	24.732
O          0.03480        0.05420       -0.10950
C          0.01040        1.23830        0.02360
N         -1.12320        2.15740       -0.01910
C         -1.01330        3.01620        1.20220
C         -0.11100        3.31650        0.08430
C          1.04650        2.34050        0.08630
C          2.39150        2.32850        0.71170
N          2.23770        2.40840       -0.74580
H         -1.89530        3.63170        1.34530
H         -0.61290        2.57500        2.11190
H         -0.20480        4.17240       -0.57100
H          2.76720        3.23330        1.18090
H          2.72440        1.39490        1.15790
H          2.40300        1.50050       -1.17720
