17
gdb 18713	3.27814	2.19558	1.51338	1.7273	68.44	-0.2307	0.0093	0.24	845.008	0.144643	-363.845705	-363.838826	-363.837881	-363.876544	27.41
O         -0.04180        1.44130        0.09720
C          0.02450        0.02440       -0.01990
C          0.92170       -0.58150        1.08080
C          0.77100       -2.07210        1.24250
C         -0.37340       -2.70210        0.97710
C         -1.55680       -1.96300        0.46960
N         -2.00390       -0.77560        1.25890
C         -1.36080       -0.58530       -0.05210
H         -0.53690        1.62420        0.90470
H          0.48920       -0.15640       -0.99650
H          1.96190       -0.30960        0.87650
H          0.65930       -0.09520        2.03020
H          1.62230       -2.62600        1.62850
H         -0.47130       -3.77310        1.12610
H         -2.34140       -2.56050        0.01380
H         -3.01170       -0.67270        1.16640
H         -1.98030       -0.25570       -0.88340
