17
gdb 9745	3.52422	1.68639	1.55296	0.5348	63.56	-0.2512	0.0183	0.2695	889.7035	0.142359	-401.016134	-401.008238	-401.007294	-401.04849	29.216
C         -0.17250        1.65930       -0.10700
C         -0.00750        0.14690       -0.08230
C         -1.34940       -0.59290       -0.06040
O         -2.14070       -0.24670        1.05630
C          0.96160       -0.41690       -1.15850
N          2.03660       -1.09490       -0.41490
C          1.77070       -0.91750        0.81000
O          0.66940       -0.21850        1.17480
H          0.79630        2.15290        0.00820
H         -0.60590        1.97000       -1.06350
H         -0.84020        1.98580        0.69300
H         -1.92570       -0.32770       -0.95360
H         -1.15380       -1.67650       -0.09810
H         -1.60480       -0.43220        1.83640
H          0.46530       -1.13020       -1.82700
H          1.38720        0.37420       -1.78550
H          2.36740       -1.28000        1.64030
