16
gdb 224	4.42313	2.76203	2.72257	2.5692	56.92	-0.247	-0.0179	0.2291	611.1634	0.139975	-271.656372	-271.648691	-271.647747	-271.687368	27.295
C         -0.02490        1.57180        0.02430
C         -0.00240        0.04050        0.01300
C          0.75870       -0.51550        1.23560
C         -1.43320       -0.53860       -0.00840
C          0.70930       -0.47530       -1.23160
O          1.19340        0.20490       -2.09820
H          0.98970        1.97880        0.01420
H         -0.54240        1.96270       -0.85590
H         -0.53670        1.94100        0.91880
H          0.23580       -0.24410        2.15840
H          0.82900       -1.60840        1.20200
H          1.77430       -0.11100        1.28970
H         -2.00680       -0.15050       -0.85610
H         -1.42300       -1.63210       -0.07650
H         -1.96160       -0.26750        0.91130
H          0.75390       -1.59020       -1.28880
