18
gdb 14160	3.40076	2.28715	1.87835	1.2847	71.54	-0.2364	0.0034	0.2398	789.1559	0.154548	-347.773434	-347.766535	-347.765591	-347.803839	28.754
C         -0.13910        1.57420        0.00190
C         -0.01100        0.05720       -0.00780
O         -1.31110       -0.40610       -0.22780
C          1.17660       -0.57200       -0.87100
C          2.10890       -0.20230        0.33030
C          0.84760       -0.61280        1.16070
C          0.74260       -2.08490        0.75080
C          0.95700       -2.05830       -0.57320
H          0.80410        2.09360        0.16690
H         -0.55690        1.90550       -0.95370
H         -0.84180        1.87010        0.78700
H         -1.26210       -1.37150       -0.23950
H          1.37990       -0.26390       -1.89660
H          2.98900       -0.83390        0.46020
H          2.38390        0.85110        0.39600
H          0.71490       -0.34640        2.20930
H          0.53020       -2.92200        1.40100
H          0.96590       -2.86800       -1.28940
