13
gdb 2162	3.57354	3.32165	1.96525	2.7333	49.55	-0.2742	0.0009	0.2751	646.5752	0.102021	-381.630276	-381.623783	-381.622839	-381.661018	22.584
C          0.02140        1.51190       -0.05500
C         -0.03790       -0.01440        0.00570
O          0.62420       -0.64970       -1.08250
C          1.86130       -1.12560       -0.61170
O          1.76410       -1.25500        0.80370
C          0.67540       -0.56510        1.23870
O          0.38660       -0.43640        2.39000
H          1.05600        1.86820       -0.06350
H         -0.47660        1.86910       -0.95950
H         -0.48200        1.93280        0.81960
H         -1.07920       -0.35250        0.01420
H          2.06230       -2.10850       -1.04740
H          2.68380       -0.43180       -0.84160
