16
gdb 17140	4.09032	1.98712	1.6036	0.616	76.37	-0.2506	0.0413	0.292	824.2958	0.130751	-309.360378	-309.353901	-309.352957	-309.39068	26.321
C          0.02160       -1.14480       -0.01090
C         -0.01340        0.05810        0.02100
C         -0.06010        1.48790        0.06650
C         -0.75540        2.41010        1.09740
C         -0.10470        3.38510        0.10090
C          1.16310        2.48190       -0.08580
C          1.04950        2.50190       -1.62130
C         -0.40950        2.46390       -1.13040
H          0.05270       -2.20570       -0.03960
H         -1.84900        2.37390        1.11660
H         -0.34880        2.39120        2.11320
H         -0.11450        4.47470        0.09680
H          2.05140        2.47600        0.54770
H          1.37220        3.41940       -2.12300
H          1.41300        1.61800       -2.15310
H         -1.33750        2.43700       -1.70360
