11
gdb 193	9.16324	3.7188	2.68951	1.3368	47.52	-0.2371	0.0082	0.2453	474.9666	0.086046	-285.330157	-285.32495	-285.324006	-285.358812	18.156
C         -0.01790        1.46290        0.06360
C         -0.01100       -0.01800       -0.05680
N         -0.17360       -0.74420       -1.11820
C         -0.07510       -2.05540       -0.66510
C          0.14550       -2.04720        0.66790
O          0.18960       -0.74240        1.07680
H          0.93560        1.83110        0.45590
H         -0.18910        1.89620       -0.92190
H         -0.80650        1.79950        0.74450
H         -0.17040       -2.89660       -1.33300
H          0.28480       -2.79590        1.42820
