17
gdb 8862	3.6856	1.42222	1.12754	3.5665	73.65	-0.2426	-0.0232	0.2194	1078.9506	0.139866	-363.855526	-363.846153	-363.845209	-363.889883	32.713
C         -0.02210        1.54240        0.04270
C          0.03280        0.01340       -0.02500
N          0.72450       -0.48370       -1.21400
C          2.16130       -0.66440       -1.13270
C         -0.01900       -0.68130       -2.34320
O         -1.22070       -0.46550       -2.39760
C          0.69130       -1.18220       -3.51550
C          1.17650       -1.59090       -4.53760
H          0.97980        1.98370        0.03710
H         -0.58160        1.93550       -0.80960
H         -0.52470        1.86110        0.96120
H          0.54990       -0.39400        0.85060
H         -0.98080       -0.39150       -0.04430
H          2.41450       -1.40580       -0.36470
H          2.54640       -1.00970       -2.09140
H          2.66240        0.27720       -0.87610
H          1.60050       -1.95220       -5.44270
