13
gdb 20701	5.94337	1.6119	1.27802	1.1486	63.46	-0.2386	-0.0699	0.1687	894.113	0.096249	-394.807198	-394.800424	-394.79948	-394.838331	24.826
C         -0.05360        1.47010        0.04300
C          0.00170       -0.02850        0.00250
N          0.03340       -0.62220       -1.21220
C          0.08170       -1.93530       -1.21900
C          0.09760       -2.63860       -0.00160
O          0.14660       -3.97940       -0.00010
N          0.06500       -2.00770        1.15790
N          0.01600       -0.67500        1.16590
H          0.81590        1.89710       -0.46650
H         -0.94280        1.83260       -0.48230
H         -0.07550        1.81640        1.07640
H          0.10860       -2.45960       -2.17100
H          0.14910       -4.25450        0.92940
