13
gdb 10375	2.5153	2.17961	1.41974	4.7663	62.79	-0.2684	-0.0172	0.2512	864.7466	0.096677	-357.630714	-357.623424	-357.62248	-357.662487	25.845
N          0.03870       -1.19400        0.01820
C          0.00510       -0.03970        0.00460
C         -0.02280        1.42080        0.00280
C         -0.15870        2.03690        1.44650
N          1.30700        2.18180        1.48960
C          1.41480        2.06520        0.02470
C         -0.94290        1.93240       -1.00520
N         -1.66060        2.38040       -1.79160
H         -0.72840        2.97350        1.40620
H         -0.58350        1.37580        2.20510
H          1.65110        3.04740        1.88760
H          2.22540        1.42640       -0.33300
H          1.41360        3.01200       -0.52930
