20
gdb 5956	4.26727	1.06115	1.05789	3.2112	71.71	-0.2415	-0.0197	0.2217	1216.0471	0.173064	-386.157611	-386.147614	-386.14667	-386.192374	35.943
C         -0.11200        1.56850        0.12200
C          0.00280        0.04770       -0.01630
C          0.73790       -0.43690       -1.28490
C          0.04330        0.02670       -2.56870
O          2.05500        0.12720       -1.34200
C          0.84020       -1.98260       -1.25120
C          1.59830       -2.56750       -2.42420
O          1.23030       -3.52000       -3.06470
H          0.86570        2.04310        0.00150
H         -0.78600        1.99640       -0.62560
H         -0.50430        1.83540        1.10770
H          0.54190       -0.35510        0.85380
H         -0.99290       -0.41130        0.01180
H          0.01490        1.11690       -2.61880
H          0.58210       -0.33290       -3.44980
H         -0.98020       -0.35630       -2.61380
H          2.49870       -0.06780       -0.50870
H          1.38500       -2.27070       -0.33850
H         -0.14720       -2.45130       -1.20420
H          2.55360       -2.05000       -2.65550
