9
gdb 913	6.21503	2.98117	2.01475	5.2453	45.42	-0.2737	-0.0602	0.2136	558.3529	0.056738	-375.410333	-375.405204	-375.40426	-375.440082	17.612
O          0.00230       -0.02060        0.00280
C         -0.01390        1.17720        0.00960
N         -1.24250        1.90140        0.03000
C         -1.18630        3.16560        0.03540
O         -0.05110        3.92180        0.02340
C          1.10410        3.19690        0.00440
N          1.19460        1.93470       -0.00290
H         -2.06980        3.79820        0.05050
H          1.97010        3.85330       -0.00400
