17
gdb 15178	8.53224	0.648	0.62922	2.4943	75.52	-0.2316	0.0366	0.2682	1738.5231	0.141553	-363.798803	-363.78971	-363.788766	-363.834496	31.055
O         -0.06360        1.37720        0.09490
C         -0.04950       -0.03240        0.23940
C         -1.34870       -0.55650       -0.38350
C         -1.47000       -2.00550       -0.29990
C         -1.54350       -3.20650       -0.21700
C         -1.65980       -4.63580       -0.14540
C         -1.55670       -5.32900        1.17460
N         -2.85040       -5.25660        0.48990
H          0.74860        1.72820        0.47100
H          0.81060       -0.48760       -0.27370
H         -0.00350       -0.33460        1.29640
H         -2.19360       -0.07260        0.12190
H         -1.38790       -0.22900       -1.42970
H         -1.32430       -5.17610       -1.02720
H         -1.11510       -6.32070        1.21820
H         -1.38620       -4.70910        2.04970
H         -3.41550       -4.52000        0.90600
