16
gdb 549	19.04993	1.28796	1.24432	0.0023	54.79	-0.2512	0.0848	0.336	963.7244	0.141011	-308.741915	-308.733932	-308.732988	-308.774251	25.869
C          0.50910        1.56210       -0.09230
O          0.53900        0.17230        0.12300
C         -0.05760       -0.55710       -0.92420
C          0.03990       -2.03360       -0.57290
O         -0.55780       -2.76290       -1.61950
C         -0.52640       -4.15280       -1.40500
H          1.05130        1.84580       -1.00840
H         -0.52210        1.94110       -0.17510
H          0.99190        2.03740        0.76510
H         -1.11550       -0.27620       -1.05440
H          0.45260       -0.36920       -1.88300
H          1.09770       -2.31520       -0.44330
H         -0.46980       -2.22080        0.38630
H         -1.06950       -4.43780       -0.48990
H         -1.00730       -4.62820       -2.26340
H          0.50520       -4.53040       -1.32100
