11
gdb 21601	3.63062	2.00265	1.29231	5.2876	59.58	-0.2423	-0.0591	0.1832	840.2177	0.07341	-393.574864	-393.568177	-393.567233	-393.60579	24.254
N          0.06450        1.38750        0.16420
C          0.00560        0.00980        0.03920
C         -1.05690       -0.84510        0.01310
O         -0.61940       -2.12570       -0.04050
N          0.74090       -2.15650       -0.05160
C          1.11980       -0.88970       -0.00430
C          2.49010       -0.51390       -0.01200
N          3.57950       -0.12380       -0.02440
H          0.92830        1.79570       -0.16580
H         -0.73730        1.88370       -0.19640
H         -2.12540       -0.70890        0.02940
