15
gdb 5596	3.56829	1.84857	1.27817	1.5707	64.04	-0.1829	0.033	0.2159	912.3303	0.120148	-399.818967	-399.8115	-399.810556	-399.8506	28.205
N         -0.30500        1.16950       -0.48210
C         -0.21540       -0.16230       -0.12410
C         -1.15930       -1.04800        0.32540
C         -2.61780       -0.74990        0.47330
O         -3.13400        0.00890       -0.63090
C         -0.43220       -2.26070        0.59850
C          0.86560       -2.02180        0.29920
O          1.01110       -0.72670       -0.15200
H          0.38150        1.45160       -1.16930
H         -1.25050        1.40180       -0.76330
H         -3.18380       -1.68310        0.60750
H         -2.82400       -0.12270        1.34910
H         -2.95660       -0.50730       -1.42540
H         -0.84190       -3.18780        0.97100
H          1.77020       -2.60320        0.33260
