14
gdb 8745	3.84314	1.26111	1.21648	3.9046	63.86	-0.2774	0.0143	0.2917	1017.8094	0.105615	-378.679407	-378.670537	-378.669593	-378.713047	31.17
N          0.19200        1.58600       -0.08850
C          0.10850        0.12900       -0.02760
C          0.64290       -0.53970       -1.23180
N          1.06080       -1.03280       -2.19020
C          0.86320       -0.36970        1.24770
O          2.14110        0.23550        1.33020
C          0.05500       -0.13140        2.44440
C         -0.60020        0.07790        3.42930
H          1.11460        1.85370       -0.41750
H         -0.47720        1.95100       -0.75770
H         -0.94310       -0.15690        0.07340
H          1.04770       -1.44390        1.14010
H          2.00500        1.12590        1.67560
H         -1.17650        0.25460        4.30410
