14
gdb 5560	3.37792	1.79285	1.2361	1.5349	60.45	-0.2026	0.0199	0.2226	924.3496	0.108867	-415.891426	-415.884	-415.883055	-415.923521	27.161
O          0.16570        1.34050        0.39070
C         -0.00830        0.15090       -0.38410
C         -1.33120       -0.49060       -0.16560
C         -1.72350       -1.76250        0.18030
O         -0.91040       -2.81820        0.41040
N         -3.08040       -1.87400        0.26730
C         -3.53920       -0.66880       -0.01770
N         -2.53560        0.19480       -0.29430
H          0.06790        1.09000        1.31600
H          0.11680        0.48270       -1.42220
H          0.77490       -0.59270       -0.18470
H         -1.48740       -3.55860        0.63340
H         -4.57900       -0.38020       -0.03140
H         -2.61490        1.18110       -0.47900
