16
gdb 5578	3.42268	1.8285	1.22411	1.8948	68.74	-0.1877	0.0146	0.2023	976.7455	0.131029	-379.951748	-379.943554	-379.94261	-379.985045	28.571
C         -0.00190        1.48130       -0.06550
N          0.38410        0.09110        0.15090
C          0.73840       -0.66860       -0.95600
C          0.63680       -2.01440       -1.16410
C          0.09720       -3.16510       -0.39980
O          1.21810       -2.26970       -2.39550
C          1.61080       -1.06780       -2.84450
N          1.36130       -0.07820       -2.04990
H          0.80560        1.99900       -0.58490
H         -0.91870        1.59860       -0.66390
H         -0.15370        1.95750        0.90650
H         -0.24460       -0.40010        0.77040
H         -0.59810       -3.76110       -1.00240
H          0.88590       -3.83970       -0.04340
H         -0.44830       -2.80780        0.47880
H          2.08810       -1.03650       -3.81140
