10
gdb 3963	7.66212	2.0159	1.69422	1.922	44.22	-0.3046	-0.0789	0.2257	670.7022	0.066444	-392.565188	-392.559225	-392.55828	-392.595658	20.149
O          0.08990        1.35740       -0.21480
C          0.02620        0.01250        0.20810
C         -1.37710       -0.51210        0.17160
N         -2.02160       -1.07920        1.14810
O         -3.24010       -1.36850        0.62970
N         -3.28170       -0.93780       -0.69070
N         -2.16620       -0.42830       -0.96410
H         -0.21860        1.39820       -1.12710
H          0.66610       -0.64290       -0.40180
H          0.39170       -0.02530        1.23630
