20
gdb 18832	3.80192	2.0606	1.7399	0.2571	76.83	-0.2482	0.0875	0.3357	846.5298	0.179841	-311.856455	-311.84975	-311.848806	-311.886836	27.917
C         -0.15810        1.56930        0.00270
C          0.04470        0.05470       -0.00240
C          0.87560       -0.49220       -1.19950
C          1.61140       -1.69850       -0.61760
C          2.59430       -1.47510        0.52330
C          2.30820       -0.14860        1.22550
C          0.78530       -0.52210        1.21870
C          1.18340       -1.96510        0.80070
H          0.79810        2.10240        0.04380
H         -0.68070        1.90050       -0.90110
H         -0.75440        1.88760        0.86480
H         -0.94320       -0.42610       -0.03150
H          0.23380       -0.77990       -2.03810
H          1.57070        0.26680       -1.57930
H          1.83650       -2.54600       -1.25600
H          3.52410       -2.03080        0.56900
H          2.70930       -0.14230        2.24240
H          2.61100        0.77890        0.72600
H          0.26150       -0.38390        2.16560
H          0.82330       -2.90560        1.19580
