14
gdb 16590	3.33834	1.88018	1.54296	2.8352	58.15	-0.2401	-0.0171	0.223	831.9012	0.105952	-419.647709	-419.640269	-419.639325	-419.679536	27.477
O         -0.18030        1.39570        0.10090
C         -0.09790        0.00860       -0.02730
C         -1.33200       -0.79040        0.01620
C         -0.45790       -0.72770       -1.30940
C         -1.64310       -0.10800       -1.96310
O         -2.00070       -0.01640       -3.10730
C         -2.47970       -0.02040       -0.65650
O         -3.65410       -0.78930       -0.77490
H          0.53260        1.79080       -0.41240
H          0.76040       -0.44240        0.47250
H         -1.48180       -1.65190        0.65260
H          0.21240       -1.45120       -1.75840
H         -2.67370        0.97410       -0.24230
H         -4.01650       -0.61070       -1.65160
