19
gdb 7817	3.22422	1.81643	1.24247	1.6793	73.63	-0.238	0.0318	0.2698	1017.0915	0.166089	-365.097415	-365.089258	-365.088313	-365.129782	30.532
C          0.01090        1.56940       -0.02130
C          0.06090        0.04060       -0.00750
C          0.72610       -0.53570       -1.26320
C          0.96700       -2.02220       -1.05060
O          1.72650       -2.25610        0.14150
C          1.47880       -1.42420        1.19470
C          2.23900       -1.88240        2.40520
N          0.73250       -0.39900        1.21790
H          1.02330        1.98540       -0.05830
H         -0.54570        1.93660       -0.89000
H         -0.47040        1.93860        0.88790
H         -0.97520       -0.32840        0.03770
H          0.10600       -0.37940       -2.15220
H          1.68510       -0.03210       -1.43640
H          0.01360       -2.56170       -0.96800
H          1.54320       -2.47320       -1.86250
H          3.31050       -1.92360        2.18430
H          2.05850       -1.19610        3.23130
H          1.92980       -2.89370        2.68860
