17
gdb 2680	10.92451	0.79146	0.77844	1.2521	70.34	-0.2407	0.0378	0.2785	1483.1518	0.14626	-309.688189	-309.679054	-309.67811	-309.723696	30.45
C         -0.00110        1.52730       -0.16620
C         -0.05840       -0.00050       -0.21610
C         -1.37990       -0.55690        0.35180
C         -1.46290       -2.01200        0.31250
C         -1.50890       -3.21400        0.26180
C         -1.56500       -4.66920        0.22860
O         -2.13410       -5.10190       -1.00300
H          0.94320        1.90100       -0.57320
H         -0.81460        1.97480       -0.74840
H         -0.08940        1.89570        0.86210
H          0.05670       -0.34990       -1.24810
H          0.77730       -0.42840        0.34900
H         -1.50460       -0.21140        1.38730
H         -2.22360       -0.13060       -0.20790
H         -0.54720       -5.07310        0.35760
H         -2.15810       -5.02750        1.08640
H         -2.15440       -6.06420       -0.98500
