22
gdb 9907	4.53864	0.86551	0.82054	1.3125	78.76	-0.2609	0.0806	0.3415	1477.8756	0.198978	-350.193488	-350.183767	-350.182823	-350.228257	35.572
C          0.04680        1.56940        0.32470
C         -0.01740        0.07620        0.05960
C         -1.35720       -0.44910       -0.43790
C         -1.77620        0.09190       -1.81110
C         -3.08370       -0.51160       -2.30590
O         -3.38450        0.06460       -3.56870
C          1.23220       -0.59950       -0.45530
C          0.78360       -0.82300        0.97100
H          1.02690        1.85570        0.71900
H         -0.12310        2.15290       -0.58650
H         -0.70850        1.87280        1.06000
H         -1.31020       -1.54520       -0.48500
H         -2.13450       -0.21000        0.30240
H         -1.89570        1.18060       -1.77860
H         -0.99290       -0.11540       -2.54990
H         -2.98310       -1.60720       -2.38210
H         -3.88590       -0.31110       -1.57600
H         -4.20930       -0.31610       -3.88380
H          1.12200       -1.41960       -1.15770
H          2.11420        0.00930       -0.62470
H          1.36140       -0.36280        1.76600
H          0.37220       -1.79330        1.22990
