22
gdb 6933	4.52426	0.9257	0.87169	1.2629	79.37	-0.2452	0.0792	0.3244	1433.7648	0.197945	-350.200837	-350.190946	-350.190002	-350.235455	36.534
C          0.03160        1.52990       -0.15250
C          0.16990        0.00800       -0.06540
C          0.50250       -0.48630        1.34940
C          0.63950       -1.99230        1.42460
C          1.95330       -2.69030        1.10280
C          1.38610       -2.71900        2.50480
C          2.08480       -2.00490        3.63990
O          0.74550       -3.90920        2.90310
H          0.96190        2.03010        0.13970
H         -0.21300        1.85190       -1.16960
H         -0.76030        1.89490        0.51130
H         -0.76180       -0.46560       -0.40170
H          0.94980       -0.33480       -0.75710
H          1.43000       -0.00550        1.68550
H         -0.28200       -0.15100        2.04220
H         -0.24230       -2.53650        1.09480
H          1.91470       -3.60940        0.52860
H          2.82420       -2.06880        0.91420
H          2.55310       -1.07340        3.31270
H          1.37710       -1.77490        4.44300
H          2.87590       -2.63870        4.06040
H          1.43010       -4.53520        3.16540
