15
gdb 15742	6.33647	1.04477	0.96738	4.5833	64.61	-0.2699	-0.0264	0.2435	1176.1961	0.117782	-399.814379	-399.806344	-399.8054	-399.848304	27.803
N         -0.07330        1.47130        0.03030
C          0.03070        0.21040        0.03710
O         -1.08940       -0.58570        0.17210
C         -2.33790       -0.03620       -0.00020
O         -3.31500       -0.68500        0.20650
C          1.23280       -0.65690       -0.05900
C          2.40780       -0.22190       -0.91650
C          2.53700       -0.20410        0.57190
H          0.83280        1.92150       -0.08230
H         -2.29760        1.00380       -0.34470
H          1.00750       -1.71500       -0.02650
H          2.92000       -0.99430       -1.47800
H          2.31340        0.72450       -1.43840
H          2.52930        0.75480        1.07920
H          3.14070       -0.96330        1.05490
