18
gdb 16705	3.45848	1.87506	1.62236	2.2861	66.92	-0.2515	0.074	0.3255	857.6142	0.155392	-384.91935	-384.912217	-384.911273	-384.950178	28.749
O         -0.01520        1.38850       -0.10180
C          0.04680       -0.02020       -0.02830
C          0.11730       -0.61940        1.41400
C         -1.39990       -0.27820        1.51720
C         -1.37840       -0.63580        0.00060
C         -1.06440       -2.13560        0.03500
O         -0.64990       -2.56740       -1.25140
C          0.07880       -2.12720        1.11480
H          0.86220        1.73200        0.09280
H          0.74210       -0.42910       -0.77110
H          0.84660       -0.26340        2.14450
H         -2.01750       -0.88990        2.18190
H         -1.58360        0.78120        1.68410
H         -2.14960       -0.30710       -0.69490
H         -1.93610       -2.71590        0.36830
H         -0.41120       -3.49750       -1.19200
H          1.01220       -2.50310        0.68280
H         -0.16200       -2.72570        1.99840
