17
gdb 17931	3.36068	2.4224	2.01785	0.7808	75.25	-0.2068	-0.034	0.1728	762.526	0.142514	-326.610451	-326.603766	-326.602822	-326.640718	26.882
C          0.06520        1.70500       -0.19180
C          0.16720        0.22610        0.00520
C          0.79880       -0.82260       -0.80280
C          1.79570       -1.58040        0.09310
C          1.04470       -1.50410        1.41520
C          0.05000       -0.59500        1.30240
C         -1.27380       -1.15820        0.78370
N         -0.75100       -0.77660       -0.60740
H          0.97020        2.20920        0.16440
H         -0.06590        1.93950       -1.25240
H         -0.78600        2.12030        0.35850
H          1.00160       -0.68520       -1.86180
H          1.93580       -2.63650       -0.16520
H          2.78290       -1.10180        0.01240
H          0.90880       -2.41150        1.99830
H         -1.47340       -2.21880        0.96020
H         -2.18190       -0.56610        0.93340
