16
gdb 4467	3.59321	1.69495	1.16718	0.4033	67.99	-0.1719	0.0677	0.2396	995.8641	0.130622	-379.953488	-379.944877	-379.943933	-379.986192	31.502
C          0.06750        1.51500        0.02510
C          0.05740        0.01750        0.01640
C         -0.03220       -0.78720       -1.09600
N         -0.13630       -0.54170       -2.48550
N         -0.00670       -2.10830       -0.66120
C          0.09580       -2.13530        0.69430
O          0.13500       -3.34990        1.30420
C          0.13910       -0.84470        1.16260
H          0.99070        1.91740        0.46000
H         -0.01580        1.91050       -0.99220
H         -0.76470        1.92790        0.60820
H         -0.97350       -0.02070       -2.72370
H          0.65770       -0.02350       -2.84610
H         -0.05700       -2.90940       -1.26640
H          0.20450       -3.20380        2.25220
H          0.21930       -0.54300        2.19650
