20
gdb 9255	6.13653	0.75938	0.7154	1.2348	80.7	-0.2389	0.0549	0.2938	1648.5132	0.173795	-348.987938	-348.977311	-348.976367	-349.025167	36.253
C          0.05350        1.55590        0.17280
C         -0.02170        0.03840       -0.00710
C          0.71310       -0.45230       -1.26210
O          2.07890       -0.06130       -1.25930
C          0.55790       -1.97920       -1.44230
C          1.18490       -2.49580       -2.65240
C          1.69810       -2.91100       -3.65900
C          2.32350       -3.41060       -4.87510
H          1.09460        1.88790        0.18900
H         -0.44680        2.07440       -0.65260
H         -0.42660        1.86950        1.10450
H          0.41100       -0.46480        0.87040
H         -1.06920       -0.28520       -0.05830
H          0.28980        0.04320       -2.14420
H          2.52190       -0.54050       -0.54970
H          0.98010       -2.47840       -0.55660
H         -0.51230       -2.22540       -1.43970
H          2.91100       -4.31480       -4.67990
H          1.57640       -3.66080       -5.63660
H          2.99980       -2.66510       -5.30820
