18
gdb 16955	3.32154	2.21837	2.02656	1.5691	70.42	-0.2354	0.0104	0.2458	770.7802	0.157149	-347.811109	-347.804791	-347.803847	-347.841112	26.631
O          0.12210        1.39660       -0.14460
C          0.02630       -0.00700       -0.01080
C          0.64810       -0.58530        1.30250
C         -0.54620       -1.36390        1.94300
C         -1.20110       -1.94810        0.66530
C         -1.44400       -0.55920        0.03390
C         -2.12280        0.15460        1.19490
C         -1.58560       -0.31960        2.32560
H         -0.32960        1.78240        0.61500
H          0.53780       -0.40710       -0.89070
H          1.48250       -1.25920        1.08590
H          1.02680        0.21660        1.94120
H         -0.26240       -2.06690        2.72670
H         -0.52380       -2.58300        0.08320
H         -2.12870       -2.48950        0.86730
H         -1.95630       -0.51720       -0.92720
H         -2.83940        0.96020        1.09410
H         -1.76790        0.02430        3.33660
