19
gdb 17289	3.05156	2.41239	1.84398	1.6665	73.87	-0.2182	0.0762	0.2943	816.6142	0.166534	-327.859402	-327.852465	-327.851521	-327.889873	28.493
C         -0.02920        1.50660       -0.03980
C         -0.01030       -0.00400        0.00760
C         -1.36850       -0.77510       -0.02360
C         -0.93580       -1.57220        1.25080
C          0.41840       -0.81590        1.25710
N          1.63120       -1.40400        0.55060
C          1.18520       -2.14520       -0.64430
C          1.17930       -0.67470       -0.71230
H          0.95880        1.92260        0.18780
H         -0.31960        1.86590       -1.03500
H         -0.74250        1.91810        0.68240
H         -2.23110       -0.12480        0.14440
H         -1.55710       -1.36630       -0.92380
H         -1.54080       -1.33820        2.13030
H         -0.88450       -2.66030        1.16140
H          0.73400       -0.34580        2.18940
H          2.01000       -2.65860       -1.13070
H          0.26290       -2.71660       -0.63230
H          1.89110       -0.12450       -1.32320
