16
gdb 10491	3.38945	1.46693	1.20201	1.7079	65.77	-0.2589	0.0426	0.3015	1016.1947	0.128165	-383.678718	-383.670313	-383.669369	-383.711748	30.891
O          0.76700       -1.59430       -0.29470
C         -0.14670       -0.70030       -0.88930
C         -1.46410       -0.64740       -0.12580
C         -2.47990        0.39330       -0.58470
C         -1.96920        1.76090       -0.57400
C         -1.54750        2.88590       -0.56540
C         -1.92980       -1.84220        0.58570
O         -1.29540       -0.76030        1.29370
H          0.76540       -1.37880        0.64730
H          0.26190        0.31950       -0.95150
H         -0.32590       -1.04820       -1.91320
H         -2.81470        0.13380       -1.59840
H         -3.36080        0.32470        0.06320
H         -1.17860        3.88180       -0.55420
H         -2.99060       -1.96770        0.79620
H         -1.34280       -2.75450        0.52350
