14
gdb 9568	4.74236	1.30916	1.21362	1.733	72.04	-0.2577	0.0017	0.2594	1002.3908	0.102893	-345.313146	-345.304745	-345.3038	-345.345616	30.855
C         -0.06640        1.54510       -0.07770
C         -0.03970        0.03750        0.04330
O          1.23790       -0.58580       -0.16220
C          0.68930       -0.63780        1.16060
C          1.35620        0.09790        2.19960
C          1.90210        0.68750        3.09380
C         -1.16510       -0.65940       -0.53740
C         -2.11520       -1.21180       -1.02390
H          0.79610        1.98040        0.42890
H         -0.04490        1.83180       -1.13290
H         -0.98280        1.94450        0.36630
H          0.33190       -1.62500        1.45080
H          2.38870        1.20960        3.88070
H         -2.94960       -1.70790       -1.45520
