17
gdb 20100	4.92606	1.55564	1.40457	1.4507	68.7	-0.2275	0.0729	0.3003	921.7267	0.143125	-363.785528	-363.778514	-363.777569	-363.816982	26.924
C          0.31370        1.53090        0.19790
N          1.19360        0.43080       -0.22450
C         -0.21530        0.14330        0.09350
C         -0.45380       -0.69140        1.29260
C          0.51640       -0.99140        2.38830
C         -0.15510       -2.13530        1.64960
C         -1.62000       -2.19680        2.05970
O         -1.80490       -0.78210        1.77310
H          0.54050        1.93960        1.17790
H         -0.01110        2.25850       -0.54080
H          1.31810        0.44940       -1.23270
H         -0.89400       -0.05800       -0.73320
H          1.55770       -0.83960        2.12590
H          0.24580       -0.76730        3.41720
H          0.39420       -2.89450        1.10990
H         -2.24220       -2.80630        1.39440
H         -1.84850       -2.44040        3.10440
