19
gdb 13438	3.44055	1.2285	1.08672	3.1025	72.7	-0.2294	-0.0204	0.2091	1159.5052	0.162561	-365.040292	-365.030927	-365.029983	-365.075094	32.851
C         -0.16560        1.44890        0.72300
C          0.09000        0.02380        0.28360
C          0.28320       -0.38310       -1.14460
C          0.23080        0.58540       -2.30620
N          1.39820       -0.44340       -0.18720
C          2.52140        0.47010       -0.29560
C          3.71360       -0.25850       -0.90070
O          4.58610        0.27860       -1.53120
H          0.24030        1.61990        1.72640
H          0.27310        2.19410        0.05700
H         -1.24350        1.63670        0.77100
H         -0.39320       -0.70550        0.93480
H         -0.06890       -1.37810       -1.41730
H          0.44940        1.61800       -2.02870
H          0.93930        0.29300       -3.08950
H         -0.77090        0.57010       -2.74810
H          2.36200        1.39360       -0.86710
H          2.82380        0.76930        0.71930
H          3.71430       -1.35190       -0.69470
