22
gdb 9264	5.44375	0.7751	0.713	0.8848	85.01	-0.2565	0.0595	0.316	1630.7838	0.197523	-313.049846	-313.039472	-313.038528	-313.085572	37.291
C         -0.15550        1.53450        0.07480
C          0.02530        0.01580       -0.01640
C          0.80900       -0.47380       -1.25040
C          2.25930        0.03250       -1.24370
C          0.73350       -2.00900       -1.33770
C          1.28760       -2.60310       -2.65040
C          1.10570       -4.04740       -2.73320
C          0.94280       -5.23780       -2.77520
H          0.79770        2.05790        0.19520
H         -0.63980        1.92940       -0.82570
H         -0.78320        1.80020        0.93110
H          0.52580       -0.34960        0.89120
H         -0.96520       -0.45660       -0.02520
H          0.30960       -0.06380       -2.14230
H          2.80580       -0.27780       -2.13900
H          2.30450        1.12430       -1.20510
H          2.80110       -0.35460       -0.37200
H          1.27120       -2.45480       -0.49120
H         -0.31130       -2.32450       -1.23750
H          0.78950       -2.12420       -3.50440
H          2.35430       -2.37140       -2.75290
H          0.80480       -6.28920       -2.82410
