16
gdb 17726	4.52289	2.58629	2.08538	1.4502	67.4	-0.2159	0.0589	0.2747	683.1408	0.133648	-342.645553	-342.640228	-342.639283	-342.674556	22.857
C         -0.01390        1.49740        0.01590
C          1.54990        1.79940       -0.10820
C          1.92350        0.33820       -0.12410
N          2.96670       -0.74980       -0.10550
C          1.61670       -1.47800       -0.06660
C          1.02440       -0.41760        0.88070
N         -0.16660       -0.00820        0.04880
C          0.87510       -0.44700       -0.95380
H         -0.43530        1.91810        0.93230
H         -0.57410        1.89550       -0.83390
H          1.79870        2.34000       -1.02490
H          1.93850        2.35390        0.74940
H          3.38630       -0.85120       -1.03460
H          1.55640       -2.56520       -0.03420
H          1.05390       -0.36850        1.96890
H          0.71510       -0.43620       -2.03400
