14
gdb 20196	3.63996	3.15874	2.37541	1.9896	64.4	-0.2411	-0.014	0.2271	623.7316	0.110574	-341.559913	-341.554708	-341.553764	-341.588787	21.673
C         -0.02470        1.46860        0.04330
C          1.21580        1.98480        0.02670
C          2.24510        0.86360       -0.03070
N          2.49570        0.67210        1.42870
C          1.64570       -0.21120        1.79970
N          0.89940       -0.90520        0.82650
C          0.01320        0.01340       -0.15900
C          1.40870       -0.36980       -0.44160
H         -0.93810        2.01670        0.23780
H          1.48670        3.01130        0.23820
H          3.16210        1.05760       -0.58550
H          1.47650       -0.46000        2.84330
H         -0.84330       -0.55170       -0.50170
H          1.71230       -1.07580       -1.20800
