18
gdb 8206	2.62625	2.54023	1.68995	1.1552	67.32	-0.2227	0.0858	0.3085	846.5986	0.152794	-384.929433	-384.921599	-384.920654	-384.960952	30.073
C         -0.10490        1.50640       -0.07750
C          0.02890        0.01660        0.03080
C          1.31740       -0.74150       -0.26470
C          0.68630       -0.77150        1.12200
C          1.36120       -0.25140        2.35610
O         -0.17360       -1.86190        1.39400
C         -1.09110       -1.93860        0.32150
O         -1.17720       -0.65860       -0.27180
H          0.81440        2.00040        0.24840
H         -0.29850        1.80370       -1.11330
H         -0.93320        1.86450        0.54160
H          1.28970       -1.62810       -0.88850
H          2.21730       -0.14490       -0.37600
H          1.94620        0.64340        2.12710
H          0.62150        0.00040        3.12220
H          2.04170       -1.00210        2.77110
H         -0.74950       -2.68030       -0.42000
H         -2.07510       -2.22920        0.70440
