12
gdb 19328	5.41316	1.69761	1.52265	3.1165	61.24	-0.2473	-0.0017	0.2456	800.7402	0.081167	-381.198712	-381.192351	-381.191407	-381.229025	24.768
C          0.00320       -1.19300       -0.10780
C          0.05550        0.00670       -0.03840
C          0.07210        1.41550        0.10750
O          0.21760        2.28500       -1.02450
C          1.14580        2.42530        0.03890
C          0.45650        3.24590        1.20050
O         -0.86930        3.56640        0.78090
C         -0.61760        2.25960        1.27200
H         -0.03380       -2.25180       -0.18370
H          2.20310        2.31610       -0.16790
H          0.92990        3.85720        1.95730
H         -1.20640        1.87160        2.09320
