13
gdb 8726	4.08159	1.37621	1.12996	5.994	65.53	-0.2878	-0.0814	0.2064	1009.0656	0.092649	-361.451383	-361.44285	-361.441905	-361.485087	29.239
C         -0.10710        1.44640        0.13760
C          0.07980       -0.08030       -0.04510
C          0.78430       -0.38440       -1.29040
N          1.30980       -0.59930       -2.29580
C          0.81720       -0.67920        1.16810
O          1.94740       -1.09690        1.11790
C          0.03810       -0.68220        2.39260
C         -0.62030       -0.69400        3.40010
H          0.86290        1.94720        0.18050
H         -0.67440        1.85620       -0.70030
H         -0.65170        1.64440        1.06340
H         -0.91220       -0.54740       -0.08790
H         -1.18520       -0.71350        4.30130
