14
gdb 6637	6.42776	0.72357	0.67643	2.9157	70.32	-0.2627	-0.0585	0.2042	1580.6667	0.102946	-382.538056	-382.528837	-382.527893	-382.574352	29.784
C         -0.04480        1.51500        0.11630
C          0.05660        0.04040       -0.21250
O          1.09630       -0.50120       -0.52070
C         -1.18910       -0.70430       -0.13530
C         -2.22780       -1.31690       -0.07750
C         -3.43450       -2.11970        0.00640
C         -3.15500       -3.55860        0.46320
O         -3.89580       -4.17260        1.17860
H          0.93870        1.97810        0.02470
H         -0.75510        2.00330       -0.55960
H         -0.42920        1.64720        1.13350
H         -4.18520       -1.68280        0.67240
H         -3.89420       -2.19220       -0.99150
H         -2.21580       -3.99340        0.06130
