20
gdb 7538	4.5567	1.00584	0.9463	1.8882	71.52	-0.2518	0.0782	0.33	1276.4668	0.174888	-386.117645	-386.108026	-386.107082	-386.151796	35.115
C         -0.04080        1.68400        0.22600
C         -0.07000        0.17420        0.07090
C         -1.37520       -0.41790       -0.43630
C         -1.72480       -0.01220       -1.86540
O         -2.90500       -0.71370       -2.23210
C          1.22120       -0.51870       -0.34670
C          0.70450       -0.64990        1.06600
O          1.35250        0.02390        2.10720
H          0.86370        2.00220        0.74710
H         -0.07540        2.18840       -0.74540
H         -0.90020        2.02920        0.81250
H         -1.32740       -1.51300       -0.40710
H         -2.20140       -0.12320        0.22330
H         -1.87810        1.07600       -1.92640
H         -0.88620       -0.26200       -2.53550
H         -3.15320       -0.43950       -3.11950
H          1.17040       -1.38050       -1.00480
H          2.09540        0.10920       -0.48730
H          0.26960       -1.60750        1.35490
H          2.20850       -0.39510        2.24200
