14
gdb 11717	6.32476	1.36842	1.25756	1.6968	65.07	-0.2502	0.0115	0.2617	937.7642	0.105386	-382.460625	-382.453386	-382.452442	-382.491939	27.687
O         -0.03120        1.44750       -0.08040
C          0.03520        0.05260       -0.03620
C          0.40770       -0.64410        1.33120
C         -0.96600       -1.33080        1.29760
O         -1.94250       -0.26310        1.21670
C         -1.31240       -0.69090        0.00460
C         -1.35150       -2.57880        1.85880
C         -1.63030       -3.64000        2.35050
H         -0.70630        1.70610        0.56040
H          0.68470       -0.27010       -0.85290
H          1.24380       -1.33980        1.23850
H          0.56650        0.02310        2.18090
H         -1.95840       -1.02730       -0.79860
H         -1.88910       -4.57550        2.78160
