18
gdb 11668	3.59176	1.6396	1.40422	2.2689	67.95	-0.2416	0.0742	0.3159	950.9356	0.152957	-384.869292	-384.861394	-384.86045	-384.901408	30.053
C         -0.18620        1.59800       -0.14630
C          0.02570        0.10550        0.04510
C          1.23620       -0.67240       -0.54990
C          2.18800       -0.05090        0.49450
C          0.88180       -0.50100        1.20100
C          0.60260       -0.68590        2.66370
O          1.58250       -1.51140        3.26440
O          0.95040       -1.76740        0.40800
H          0.72640        2.18470       -0.01620
H         -0.57050        1.80050       -1.15180
H         -0.92820        1.97460        0.56610
H         -0.90250       -0.45730       -0.08880
H          1.43340       -0.95800       -1.58350
H          3.06390       -0.65330        0.73370
H          2.41550        1.01480        0.44010
H          0.63300        0.28060        3.17860
H         -0.41160       -1.10030        2.78390
H          1.67820       -2.27910        2.68760
