14
gdb 20368	6.27493	1.45031	1.29827	0.9117	62.9	-0.2686	-0.0245	0.244	920.0091	0.108924	-378.711028	-378.70454	-378.703595	-378.742909	23.577
C         -0.10630        1.45000       -0.12610
C          1.28180        0.92250        0.06030
C          0.10860       -0.04190        0.05920
C         -0.30850       -0.69860        1.30690
N         -0.25070       -0.12830        2.48590
O         -0.74150       -1.11360        3.35430
C         -1.03660       -2.16290        2.59020
N         -0.80260       -1.99260        1.32920
H         -0.56290        1.97800        0.70290
H         -0.40890        1.78670       -1.11100
H          1.94740        0.89110       -0.79460
H          1.76440        1.09350        1.01540
H         -0.01670       -0.67790       -0.80800
H         -1.43470       -3.03660        3.08530
