13
gdb 8622	2.51981	1.82691	1.45834	3.0909	59.91	-0.2835	-0.0867	0.1967	892.9561	0.091549	-398.62132	-398.612579	-398.611635	-398.655352	28.953
C         -0.14020        1.73900       -0.13700
C         -0.04400        0.19380       -0.09970
C          0.46050       -0.21200        1.31280
O          1.43660       -0.86560        1.52850
C         -1.45550       -0.43000       -0.22690
O         -2.40770        0.04560        0.32640
C          0.83220       -0.33240       -1.14160
N          1.48480       -0.75010       -1.99780
H          0.83400        2.18860        0.06630
H         -0.48170        2.06980       -1.12000
H         -0.86320        2.06890        0.61100
H         -0.19540        0.18860        2.11290
H         -1.50880       -1.36030       -0.82510
