16
gdb 16729	3.71527	1.76854	1.725	3.2365	67.38	-0.2342	0.0271	0.2613	827.8536	0.133476	-342.783249	-342.776526	-342.775582	-342.814083	26.066
N          0.76890       -0.79530        0.88950
C          0.36730        0.21540        0.49520
C         -0.11460        1.49830       -0.05200
C         -0.92820        2.31180        0.99810
C          0.07220        3.30790        1.56060
C          1.41430        2.79660        2.04350
C          1.24940        3.31880        0.63100
N          0.97420        2.40320       -0.45960
H         -0.73600        1.24870       -0.91960
H         -1.73120        2.84820        0.48420
H         -1.38430        1.65840        1.74560
H         -0.31670        4.22720        1.98160
H          1.94860        3.42830        2.74540
H          1.55590        1.73340        2.20480
H          1.74230        4.23770        0.33330
H          1.79360        1.88780       -0.76310
