15
gdb 21238	3.38202	1.87606	1.22534	3.1902	64.82	-0.2195	-0.0068	0.2127	954.8287	0.118113	-399.784153	-399.77626	-399.775315	-399.817085	27.475
C          0.15700        1.39080        0.17380
O          0.12630       -0.02540        0.13160
C          0.66220       -0.59350       -0.97530
C          0.73020       -1.93780       -1.20900
C          0.29190       -3.11890       -0.42430
O          1.32410       -2.13910       -2.40440
N          1.65820       -0.92340       -2.97960
C          1.26210       -0.00880       -2.12500
H          1.18680        1.77090        0.14510
H         -0.41010        1.82940       -0.65790
H         -0.30670        1.68220        1.11720
H         -0.44210       -3.71490       -0.97720
H          1.13640       -3.77340       -0.18330
H         -0.16500       -2.78240        0.50870
H          1.41880        1.03330       -2.36060
