19
gdb 3264	3.17121	3.13517	1.74776	0.2821	72.17	-0.2334	0.0242	0.2576	773.2471	0.174551	-273.802095	-273.795337	-273.794393	-273.832657	26.414
C         -0.04500        1.53090       -0.02590
C          1.33880        2.19360        0.02210
C          2.22900        1.94070       -1.20840
C          2.76690        0.53520       -1.34580
C          2.05260       -0.59050       -1.34550
C          0.55180       -0.70210       -1.20720
C         -0.05550       -0.00340        0.02300
H         -0.63900        1.90810        0.81590
H         -0.56790        1.86230       -0.93530
H          1.19650        3.27680        0.12270
H          1.87220        1.86570        0.92370
H          1.65890        2.20710       -2.11190
H          3.07300        2.63800       -1.17690
H          3.84450        0.45000       -1.46980
H          2.58830       -1.52940       -1.46920
H          0.06750       -0.30060       -2.11090
H          0.28020       -1.76270       -1.17480
H          0.46830       -0.34590        0.92470
H         -1.09630       -0.33560        0.12400
