16
gdb 4473	3.62868	1.68915	1.16628	1.9917	69.3	-0.1652	0.0553	0.2205	998.4169	0.130261	-379.952369	-379.9434	-379.942456	-379.986073	31.713
C          0.00080        1.52660        0.10180
C          0.03050        0.04140       -0.00830
C          0.02470       -0.77650       -1.11330
O         -0.01630       -0.30360       -2.39940
C          0.04260       -2.13730       -0.68510
C          0.06860       -2.11530        0.69450
N          0.15140       -3.13280        1.67030
N          0.05580       -0.80730        1.09200
H          0.86280        1.92680        0.65260
H          0.02210        1.95840       -0.90140
H         -0.90460        1.89590        0.60220
H          0.02880       -1.05370       -2.99770
H          0.00870       -3.01880       -1.30870
H          0.53150       -3.98090        1.26780
H         -0.75760       -3.36450        2.06230
H          0.18750       -0.51950        2.04610
