17
gdb 4499	3.42617	1.79983	1.20649	1.4563	72.5	-0.2156	0.0177	0.2333	1016.8696	0.141139	-363.925802	-363.917209	-363.916264	-363.958937	30.221
C          0.06580        1.42490        0.09770
C          0.04150       -0.05350       -0.05220
N         -0.01570       -0.75310       -1.13870
C         -0.01240       -2.08400       -0.71220
C         -0.06980       -3.20850       -1.69090
C          0.04810       -2.10940        0.64360
C          0.08210       -3.17000        1.68150
O          0.08330       -0.80260        1.07960
H          0.97630        1.75570        0.60870
H          0.02720        1.88130       -0.89160
H         -0.78740        1.77680        0.68730
H          0.78150       -3.17170       -2.37920
H         -0.05910       -4.17850       -1.18740
H         -0.97810       -3.15040       -2.30050
H          0.99420       -3.11370        2.28690
H         -0.77040       -3.09260        2.36630
H          0.04910       -4.15500        1.21080
