16
gdb 3059	10.54475	1.16543	1.10973	2.8404	65.74	-0.2461	0.0253	0.2714	1080.8004	0.135256	-325.752207	-325.744458	-325.743513	-325.7847	27.016
C          0.24210        1.23870        0.18440
N         -0.28850       -0.00540       -0.33160
C          0.49070       -0.73340       -0.99630
O          0.06200       -1.91170       -1.50550
C          1.00510       -2.61870       -2.27390
C          2.03190       -3.46530       -1.57040
C          0.85250       -4.10290       -2.27620
H          1.29890        1.41880       -0.07390
H         -0.35200        2.07760       -0.19590
H          0.14860        1.25400        1.27640
H          1.54360       -0.50140       -1.21770
H          1.28050       -2.11820       -3.19930
H          3.01900       -3.55160       -2.01080
H          2.01320       -3.45850       -0.48660
H          0.06130       -4.50360       -1.65360
H          1.01920       -4.63530       -3.20520
