17
gdb 16707	2.93147	2.243	1.78186	3.4584	67.23	-0.2411	-0.0107	0.2305	816.221	0.143862	-363.850921	-363.844032	-363.843088	-363.881802	26.96
C         -0.06600        1.54330        0.03260
C          0.06010        0.02050        0.03000
C          1.00970       -0.56730       -1.08240
C          1.99650       -1.34950       -0.17860
N          1.13150       -1.98470        0.87410
C          0.77450       -0.58230        1.27460
C          2.24930       -0.29170        0.91940
O          3.14990        0.37310        1.32310
H          0.91480        2.02350        0.11780
H         -0.53440        1.89980       -0.89030
H         -0.67940        1.88780        0.87200
H         -0.93870       -0.42370       -0.04790
H          0.48970       -1.23190       -1.77820
H          1.50220        0.21540       -1.66810
H          2.78300       -1.94820       -0.63440
H          0.33590       -2.47960        0.46850
H          0.34310       -0.41750        2.26080
