16
gdb 7484	4.13461	1.32567	1.21996	3.0137	61.57	-0.2676	-0.0036	0.2641	1011.1921	0.128559	-420.874261	-420.866173	-420.865229	-420.907098	28.607
C         -0.04420        1.66120        0.08930
C         -0.01890        0.14420        0.00630
C          1.10270       -0.47220       -0.86990
O          1.84450       -0.84890        0.30390
C          0.71640       -0.56490        1.15850
O         -1.34340       -0.38100       -0.16680
C         -1.90000       -0.29300       -1.38990
O         -3.01160       -0.66390       -1.61990
H          0.95920        2.04130        0.30100
H         -0.38680        2.10630       -0.85040
H         -0.71780        1.98390        0.88860
H          0.77630       -1.34500       -1.45070
H          1.66420        0.21200       -1.51550
H          0.99330        0.04790        2.02250
H          0.20350       -1.47490        1.49160
H         -1.22360        0.14430       -2.14900
