14
gdb 20462	4.92431	2.07197	1.49955	0.9067	62.15	-0.2356	-0.0084	0.2272	785.565	0.112324	-374.889521	-374.883524	-374.88258	-374.919738	22.689
C         -0.01800        1.50910        0.20220
N          1.28350        1.95120       -0.38850
C          2.20800        0.78230       -0.51950
C          1.29070       -0.39410       -0.37370
N          1.31680       -1.71670       -0.47530
N          0.06650       -2.04150       -0.12140
N         -0.76120       -1.03820        0.19870
C          0.02290        0.01990        0.03740
H         -0.07130        1.79430        1.26110
H         -0.85330        1.99890       -0.30640
H          1.09570        2.30100       -1.32000
H          2.74320        0.82460       -1.47250
H          2.96310        0.80360        0.27730
H         -0.25030       -2.99750       -0.13590
