13
gdb 1441	8.90421	1.31044	1.16982	4.03	56.49	-0.2491	-0.0164	0.2327	951.6106	0.097813	-344.419977	-344.411819	-344.410875	-344.45308	27.616
O          0.14410        1.38170        0.09630
C         -0.02430        0.00580       -0.10390
C         -1.47840       -0.37800        0.15640
O         -2.34800        0.42860        0.33280
C         -1.71380       -1.90190        0.18620
C         -3.09940       -2.29640        0.00650
C         -4.24320       -2.62620       -0.14820
H          1.05370        1.60740       -0.11910
H          0.20720       -0.30800       -1.13800
H          0.61580       -0.60750        0.55520
H         -1.07020       -2.38150       -0.56330
H         -1.33970       -2.25500        1.15870
H         -5.25730       -2.90990       -0.28390
