15
gdb 6351	5.59908	1.09465	0.95594	5.9575	60.59	-0.2518	0.0193	0.2711	1189.3732	0.118523	-433.188757	-433.179582	-433.178638	-433.223683	31.224
C          0.07950        1.44230       -0.07380
N         -0.07700       -0.00180       -0.12090
C         -1.30050       -0.55990        0.18530
O         -2.24750        0.06650        0.59480
N         -1.28500       -1.96130        0.03570
C         -2.42140       -2.77000       -0.11120
N         -2.11360       -4.11570        0.06540
O         -3.51400       -2.37050       -0.42390
H          1.12900        1.69180        0.10310
H         -0.25410        1.93420       -0.99640
H         -0.52670        1.82250        0.74860
H          0.50740       -0.49920       -0.77440
H         -0.38730       -2.41750       -0.00400
H         -1.44270       -4.35000        0.78250
H         -2.94090       -4.69400        0.07850
