19
gdb 2360	4.75727	1.81425	1.4201	1.9323	66.86	-0.2416	0.071	0.3126	896.9405	0.171008	-310.904086	-310.896046	-310.895102	-310.936527	28.895
C         -0.15490        1.48620        0.03400
C          0.04540       -0.03340       -0.04430
C          0.78150       -0.42990       -1.33120
C          0.78310       -0.55160        1.18890
C          0.05490       -0.51120        2.55270
O          0.23560       -1.92830        2.74560
C          0.82050       -2.07770        1.43660
H          0.81000        2.00710        0.04730
H         -0.71910        1.85490       -0.82870
H         -0.70200        1.77490        0.93770
H         -0.94720       -0.50770       -0.05940
H          1.77930        0.02380       -1.36590
H          0.90600       -1.51520       -1.40670
H          0.23400       -0.09520       -2.21820
H          1.77960       -0.09930        1.23770
H          0.52710        0.07510        3.34990
H         -1.00890       -0.23850        2.49660
H          0.17790       -2.66680        0.76630
H          1.80960       -2.54900        1.48010
