21
gdb 1192	4.35126	1.60871	1.57457	1.3308	70.47	-0.26	0.064	0.324	941.358	0.192392	-312.134532	-312.125143	-312.124199	-312.167545	34.75
C         -0.18840        1.53910       -0.04930
C          0.05730        0.02840        0.00100
C          0.81370       -0.47360        1.25290
C          2.20110        0.16320        1.36950
O          0.11520       -0.06330        2.43880
C          0.89500       -2.01700        1.20200
C          1.53800       -2.67600        2.42570
H          0.73960        2.09940       -0.19660
H         -0.85910        1.79430       -0.87540
H         -0.64330        1.88450        0.88310
H         -0.91030       -0.49340       -0.03230
H          0.60100       -0.29580       -0.89530
H          2.12180        1.25060        1.43230
H          2.70900       -0.18230        2.27240
H          2.81830       -0.09210        0.50260
H         -0.76830       -0.44680        2.40350
H         -0.12980       -2.39870        1.08640
H          1.42770       -2.31390        0.28980
H          1.07470       -2.30960        3.34590
H          1.41670       -3.76280        2.38770
H          2.61050       -2.46860        2.48540
