22
gdb 13884	3.69832	1.37542	1.29609	1.4708	77.86	-0.2375	0.0811	0.3186	1095.0834	0.200641	-350.224024	-350.215052	-350.214107	-350.25822	33.081
C          0.03250        1.52410        0.02930
C         -0.08800       -0.00670       -0.01710
C         -1.56030       -0.43600        0.04230
C          0.64790       -0.55680       -1.25000
C          0.77330       -2.08190       -1.37180
C          0.90360       -2.26890       -2.88950
C         -0.02730       -1.16990       -3.42000
O         -0.02110       -0.12830       -2.44520
H          1.08100        1.84100        0.03800
H         -0.44490        1.97120       -0.84800
H         -0.44880        1.93040        0.92470
H          0.43450       -0.41730        0.85910
H         -2.08930       -0.10040       -0.85420
H         -1.67630       -1.52120        0.11850
H         -2.05220        0.00630        0.91430
H          1.66320       -0.12360       -1.25130
H          1.62620       -2.47220       -0.81080
H         -0.12910       -2.57980       -1.00300
H          1.93460       -2.08260       -3.20890
H          0.61950       -3.26580       -3.23530
H          0.29980       -0.76110       -4.38310
H         -1.05360       -1.54600       -3.54540
