18
gdb 14108	3.70711	1.7408	1.36482	2.7936	73.14	-0.2365	-0.0109	0.2256	946.8624	0.153245	-347.803218	-347.795342	-347.794398	-347.835608	29.542
C          0.48440        1.34960        0.10710
C         -0.23760        0.02000       -0.02590
O         -0.89540       -0.44050        0.88690
C         -0.08990       -0.70350       -1.31210
C         -1.12840       -1.73140       -1.71620
C          0.24890       -2.21760       -1.45200
C          1.17730       -1.90670       -2.63040
C          0.82640       -0.38700       -2.50440
H          1.56960        1.20090        0.06310
H          0.22260        2.02030       -0.71890
H          0.22280        1.81060        1.06000
H         -1.85580       -1.93390       -0.93860
H         -1.51690       -1.70460       -2.73200
H          0.46310       -2.89210       -0.63210
H          2.22860       -2.10700       -2.41490
H          0.91590       -2.39370       -3.57530
H          0.33750        0.07760       -3.36700
H          1.69780        0.21420       -2.23710
