17
gdb 5119	3.42363	1.98199	1.2756	0.9997	71.99	-0.1746	0.0591	0.2337	953.1466	0.141357	-363.898963	-363.890061	-363.889116	-363.932788	31.237
C          0.09220        1.45510        0.00710
N         -0.02410        0.01330       -0.00700
C         -0.22540       -0.78650       -1.11840
C         -0.20130       -2.09450       -0.71240
C          0.03340       -2.12270        0.70010
C          0.13010       -3.32280        1.59290
C          0.13630       -0.80260        1.07930
O          0.36700       -0.20540        2.28250
H          1.13700        1.78300       -0.05030
H         -0.45130        1.86490       -0.84690
H         -0.34240        1.85240        0.92660
H         -0.36560       -0.34000       -2.08930
H         -0.34080       -2.95630       -1.34810
H          0.57650       -3.07410        2.56430
H         -0.84590       -3.78200        1.79740
H          0.76360       -4.10030        1.15190
H          0.30160       -0.87870        2.96630
