16
gdb 18138	3.39873	1.90587	1.52023	1.7048	70.03	-0.2379	0.0191	0.257	870.3645	0.129004	-346.519929	-346.512348	-346.511403	-346.551571	28.794
C         -0.10930        1.49810       -0.18520
C          0.03730        0.00610        0.01300
C          1.32120       -0.74250       -0.15020
O          2.44260        0.03840        0.28720
C          1.95380       -0.01010        1.66300
C          1.92860        1.26540        2.36030
C          1.92820        2.29470        2.98130
C          0.65860       -0.69570        1.21140
H          0.82910        2.01540        0.01840
H         -0.39630        1.71230       -1.22040
H         -0.87950        1.91370        0.47190
H         -0.80710       -0.58110       -0.34730
H          1.52070       -1.55050       -0.84470
H          2.57950       -0.71530        2.22550
H          1.91810        3.21070        3.51900
H          0.14810       -1.46010        1.78110
