18
gdb 7689	3.44525	1.7356	1.52967	2.2395	67.88	-0.2391	0.0682	0.3073	901.9333	0.152481	-384.901604	-384.893484	-384.892539	-384.933326	31.677
C         -0.05640        1.58410       -0.05060
C          0.06530        0.08040        0.05010
O         -1.10520       -0.59560       -0.36200
C          1.31340       -0.71870       -0.22330
C          2.57060       -0.01550        0.29300
C          1.95140       -0.05200        1.73840
O          1.76770        1.15410        2.45250
C          0.67940       -0.67910        1.19100
H          0.79100        2.09790        0.40200
H         -0.13910        1.89470       -1.10060
H         -0.96180        1.90870        0.47120
H         -1.22250       -0.42100       -1.30240
H          1.29160       -1.54000       -0.92900
H          3.47810       -0.61860        0.21160
H          2.77170        0.97940       -0.11550
H          2.49140       -0.78360        2.35410
H          2.62220        1.43110        2.79840
H          0.09060       -1.43600        1.69410
