20
gdb 11856	5.91078	1.06102	1.00231	1.9242	75.74	-0.2565	0.0776	0.3341	1235.1454	0.17625	-348.980009	-348.971687	-348.970743	-349.012996	31.337
C          0.10950        1.46110        0.21310
C         -0.03810       -0.04520       -0.02300
C          0.65310       -0.52470       -1.29280
C          2.21650       -0.51150       -1.33810
C          2.14330       -1.88750       -2.00010
C          2.80890       -2.35400       -3.21710
O          3.14110       -2.88660       -1.92530
C          0.68270       -2.05890       -1.58270
H          1.16340        1.74850        0.29380
H         -0.32740        2.03550       -0.61140
H         -0.39090        1.77050        1.13590
H          0.37180       -0.59530        0.83490
H         -1.10320       -0.30770       -0.07270
H          0.25150        0.01290       -2.15910
H          2.71370        0.29350       -1.88450
H          2.65080       -0.58030       -0.33440
H          2.29640       -3.04390       -3.88720
H          3.58270       -1.74370       -3.68210
H          0.60140       -2.64610       -0.66150
H         -0.01810       -2.45750       -2.32030
