14
gdb 2454	5.54162	2.48999	2.02966	3.9632	56.71	-0.2395	-0.0132	0.2263	644.1789	0.114987	-324.58309	-324.577341	-324.576397	-324.612718	22.202
O          0.00970        0.41910        0.96350
C         -0.01360        1.36790        0.22710
C         -1.28780        2.04670       -0.31230
C         -0.80330        3.33610       -0.93280
N         -0.05580        4.17300        0.02780
C          0.68870        3.35710       -0.95290
C          1.22590        2.08210       -0.34620
H         -1.74620        1.38480       -1.05800
H         -2.00830        2.18510        0.49800
H         -1.38270        3.81850       -1.71260
H         -0.07360        5.14300       -0.27670
H          1.23310        3.85540       -1.74790
H          1.96380        2.24100        0.44440
H          1.68250        1.43310       -1.10430
