18
gdb 19434	3.98207	1.92219	1.61943	1.66	71.18	-0.2296	0.078	0.3076	847.3374	0.156781	-343.937749	-343.931154	-343.93021	-343.968226	26.776
C         -0.03540        1.48820        0.00020
N          1.22660        0.72070        0.00100
C         -0.06350        0.00870        0.02590
C         -0.37200       -0.84340        1.25260
C         -0.29380       -2.28650        0.69430
N         -0.57600       -2.23870       -0.75910
C         -1.79960       -1.50070       -1.09410
C         -0.47780       -0.82060       -1.15900
H         -0.22640        2.05350        0.90880
H         -0.34220        1.99100       -0.91410
H          1.62010        0.70280       -0.93800
H          0.34990       -0.65920        2.04990
H         -1.36850       -0.61560        1.64450
H          0.71940       -2.68470        0.80840
H         -0.98300       -2.97930        1.18590
H         -2.28260       -1.82270       -2.01210
H         -2.48620       -1.22090       -0.29880
H         -0.01870       -0.60430       -2.12170
