16
gdb 1128	5.33936	1.64693	1.31797	4.7725	57.81	-0.2486	0.0191	0.2677	901.9055	0.135762	-362.958208	-362.94998	-362.949036	-362.990904	29.418
C          0.00790        1.59880       -0.03010
C          0.06990        0.07750        0.02620
O         -1.22610       -0.39430        0.32770
C          0.57380       -0.52150       -1.30270
C          0.67750       -2.04050       -1.24100
N          1.63800       -2.60050       -2.02200
O         -0.05870       -2.72610       -0.54310
H          0.99800        2.03100       -0.20630
H         -0.66590        1.92350       -0.82980
H         -0.37870        1.98650        0.91600
H          0.78130       -0.21780        0.81790
H         -1.16840       -1.36160        0.26190
H         -0.14760       -0.26830       -2.09060
H          1.53710       -0.08180       -1.58570
H          2.24480       -2.05200       -2.60470
H          1.71160       -3.60470       -2.04770
