16
gdb 1531	8.2261	1.19166	1.06148	1.3017	58.42	-0.2603	0.034	0.2942	1074.6688	0.135571	-362.911941	-362.903488	-362.902544	-362.945269	28.714
C          0.10280        1.31880        0.00700
O         -0.07910       -0.09730        0.00130
C         -1.35380       -0.53770        0.01250
N         -2.32630        0.27970        0.02690
C         -1.36100       -2.04930        0.00480
C         -2.74550       -2.68060        0.01340
O         -2.56070       -4.08630        0.00460
H          1.18210        1.47780       -0.00330
H         -0.36130        1.77460       -0.87200
H         -0.34290        1.76500        0.90040
H         -3.21970       -0.20570        0.03380
H         -0.80850       -2.39670       -0.87540
H         -0.79380       -2.40560        0.87200
H         -3.29980       -2.35500        0.90820
H         -3.31490       -2.34580       -0.86850
H         -3.42690       -4.50380        0.00830
