13
gdb 4986	3.38729	2.47093	1.42997	1.4474	64.98	-0.2097	-0.0259	0.1839	798.7865	0.098427	-394.846901	-394.840471	-394.839527	-394.877136	25.242
N         -0.06480        1.39900       -0.11340
C         -0.03760        0.02720       -0.04730
N         -1.17100       -0.65100        0.02970
C         -1.08700       -1.99450        0.03060
C          0.12110       -2.65560       -0.03310
N          1.28440       -1.97140       -0.09570
C          1.20350       -0.66730       -0.10420
O          2.33350        0.08000       -0.15740
H          0.77940        1.88040        0.15150
H         -0.93010        1.82270        0.18440
H         -2.02410       -2.53950        0.08950
H          0.18560       -3.73820       -0.02970
H          3.07240       -0.54410       -0.17590
