15
gdb 19237	3.18945	2.01967	1.56643	4.9832	64.64	-0.2762	0.0205	0.2967	836.4334	0.118586	-362.637604	-362.630352	-362.629407	-362.669138	26.776
C         -0.11510        1.57200       -0.12910
C          0.01240        0.06090       -0.03250
C          0.69640       -0.67180       -1.20010
O          2.04670       -0.19920       -1.26740
C          1.74440       -1.22950       -0.33450
C          1.13270       -0.56270        0.91730
C          1.98760        0.34060        1.66930
N          2.65740        1.06550        2.27120
H          0.83600        2.02000       -0.42580
H         -0.87290        1.84280       -0.87160
H         -0.41230        2.00500        0.83060
H         -0.94630       -0.40480        0.21310
H          0.25880       -1.05600       -2.11360
H          2.31620       -2.14800       -0.38370
H          0.69540       -1.29930        1.59630
