26
gdb 5811	2.30715	1.64874	1.64873	0.0002	87.19	-0.2935	0.0697	0.3632	1076.0225	0.243736	-315.485896	-315.475287	-315.474343	-315.519483	42.103
C          0.06850        1.54250        0.15160
C         -0.01100        0.00500        0.02550
C          0.61530       -0.59960        1.30160
C         -1.50580       -0.38430        0.01140
C          0.73130       -0.50660       -1.28040
C          2.13780        0.11900       -1.40920
C          0.90440       -2.04140       -1.26380
C         -0.05930       -0.14090       -2.55610
H          1.08860        1.88670        0.34230
H         -0.29780        2.05320       -0.74410
H         -0.54980        1.87800        0.99130
H          0.16500       -0.14070        2.18860
H          0.44460       -1.67730        1.37220
H          1.69380       -0.42450        1.35920
H         -2.06100        0.14610       -0.76710
H         -1.65510       -1.45770       -0.13980
H         -1.96530       -0.12550        0.97150
H          2.74690       -0.03850       -0.51400
H          2.67180       -0.33900       -2.24880
H          2.09310        1.19450       -1.60140
H         -0.04380       -2.56550       -1.11060
H          1.30970       -2.37920       -2.22390
H          1.59950       -2.36790       -0.48550
H         -0.28350        0.92840       -2.61450
H          0.52950       -0.39740       -3.44340
H         -1.00380       -0.68750       -2.62450
