16
gdb 14180	3.99656	1.72828	1.7019	1.1697	60.13	-0.2381	0.0703	0.3084	831.8939	0.129473	-420.84367	-420.836157	-420.835213	-420.875157	28.247
C         -0.07330        1.60440        0.01030
C          0.03070        0.10260        0.01990
O         -1.09410       -0.59730       -0.44350
C          1.34860       -0.62870       -0.22210
O          2.53290        0.12230       -0.06940
C          2.80880        0.09770        1.32140
O          1.55620        0.07460        1.98470
C          0.70470       -0.66280        1.13730
H          0.82260        2.06610        0.42520
H         -0.19990        1.97240       -1.01490
H         -0.93910        1.92300        0.59850
H         -1.18530       -0.41950       -1.38690
H          1.39990       -1.47840       -0.89540
H          3.39750       -0.79860        1.58000
H          3.34600        1.00820        1.59850
H          0.22700       -1.53450        1.57150
