15
gdb 5900	3.0697	1.2377	1.07546	4.1247	70.54	-0.2759	-0.0008	0.275	1161.0612	0.115399	-362.646537	-362.63697	-362.636026	-362.681896	32.647
C          0.00430        1.48420        0.00470
C          0.00470        0.02960       -0.00460
C          0.00410       -1.17400       -0.00670
C          0.01580       -2.64220       -0.04060
C         -1.40450       -3.22410        0.05790
O          0.55990       -3.13830       -1.25860
C          0.83360       -3.13870        1.10290
N          1.47980       -3.53620        1.97430
H          0.82120        1.87470        0.62050
H          0.12560        1.88350       -1.00790
H         -0.93650        1.87420        0.40720
H         -1.98920       -2.85170       -0.78530
H         -1.35150       -4.31380        0.01050
H         -1.87830       -2.92120        0.99300
H          1.40280       -2.69510       -1.41030
