18
gdb 10943	4.62109	1.29051	1.19345	3.1903	73.28	-0.2447	-0.0194	0.2253	1056.4174	0.152896	-347.790089	-347.782206	-347.781262	-347.822483	29.532
C         -0.01890        1.55320        0.00470
C          0.05170        0.05360        0.01470
C         -0.87890       -0.81450        0.81290
C          0.60120       -0.91510        1.07140
C          1.25770       -1.79060       -0.01120
C          0.69060       -0.79480       -1.09300
C          2.76020       -1.76330        0.03040
O          3.47520       -2.73160       -0.00490
H          0.95160        1.99830       -0.24320
H         -0.74620        1.91110       -0.73420
H         -0.32530        1.94040        0.98190
H         -1.44070       -0.29860        1.58580
H         -1.41520       -1.64090        0.35100
H          1.02630       -0.70770        2.04700
H          0.91890       -2.82860       -0.06760
H          0.01520       -1.23150       -1.83510
H          1.49210       -0.26820       -1.62070
H          3.18980       -0.73400        0.09480
