15
gdb 14578	14.3479	0.65733	0.63602	3.4714	69.06	-0.2727	0.0164	0.2891	1631.3994	0.116287	-362.62673	-362.61775	-362.616806	-362.661379	30.205
C          0.06010       -1.19240       -0.00530
C          0.05270        0.00800        0.00130
C          0.00720        1.46290        0.00990
O          1.32550        1.98610        0.00040
C          1.34820        3.39360        0.00790
C          2.82500        3.80540       -0.00380
C          2.98790        5.25550        0.00270
N          3.09610        6.40570        0.00790
H          0.07290       -2.25440       -0.01150
H         -0.55410        1.82460       -0.86800
H         -0.53750        1.81480        0.90200
H          0.83210        3.80650       -0.87310
H          0.84900        3.79670        0.90310
H          3.32690        3.37760        0.87000
H          3.31010        3.38740       -0.89180
