14
gdb 17031	4.37902	1.60911	1.35739	3.929	62.41	-0.2744	0.0107	0.2851	878.0517	0.108839	-378.656989	-378.650525	-378.649581	-378.687632	24.992
O          0.11290        1.46860       -0.06090
C          0.07550        0.08990       -0.04140
C          0.01330       -0.64590        1.33810
N         -1.38410       -0.06340        1.46040
C         -1.31160       -0.62820        0.05230
C         -0.57930       -1.89240        0.60590
C          0.25250       -2.71220       -0.26240
N          0.91080       -3.36900       -0.94970
H         -0.52980        1.75560        0.60530
H          0.78230       -0.29660       -0.77490
H          0.72260       -0.63740        2.16560
H         -1.97200       -0.65060        2.05800
H         -2.15960       -0.59880       -0.63170
H         -1.20650       -2.52010        1.24350
