15
gdb 12747	3.32344	1.8214	1.51619	4.5555	65.21	-0.2586	-0.0018	0.2568	871.4814	0.118196	-362.630383	-362.623018	-362.622073	-362.661955	27.263
C         -0.03690        1.55960        0.00930
C          0.02320        0.06250        0.03410
C         -0.87060       -0.83900        0.86590
C          0.61440       -0.94930        0.99230
O          1.14550       -1.76730       -0.06320
C          0.69190       -0.80480       -1.04560
C         -0.15630       -1.38680       -2.08930
N         -0.83920       -1.82300       -2.91330
H          0.92550        1.99640       -0.27890
H         -0.79480        1.91330       -0.69900
H         -0.30100        1.95230        0.99570
H         -1.37240       -0.32280        1.67900
H         -1.43470       -1.65090        0.41540
H          1.20150       -0.85810        1.89790
H          1.55040       -0.30610       -1.51140
