13
gdb 16734	4.05078	1.84029	1.79909	3.8909	56.53	-0.2654	0.0076	0.273	764.0315	0.095868	-398.572435	-398.566025	-398.565081	-398.603134	23.923
N          0.48200       -0.80230        0.73530
C          0.22570        0.25510        0.34770
C         -0.12720        1.60270       -0.18830
O         -0.90920        2.31870        0.74140
C         -0.05950        3.25950        1.36800
C          1.22070        2.75890        2.00360
C          1.20500        3.27760        0.58090
O          1.03710        2.34660       -0.47020
H         -0.70000        1.46320       -1.11170
H         -0.60510        4.12170        1.72710
H          1.67220        3.41130        2.74400
H          1.35240        1.69960        2.19080
H          1.75000        4.15540        0.26110
