16
gdb 15926	3.47612	1.95314	1.57765	4.708	68.54	-0.2364	0.0035	0.2399	845.9463	0.131986	-342.751845	-342.74481	-342.743866	-342.783757	26.263
N          0.00840       -1.13260       -0.31650
C          0.00050        0.01030       -0.14020
C         -0.04190        1.44650        0.08240
C         -0.52620        2.32280       -1.10610
C          0.80480        3.10540       -0.95940
N          1.27600        2.21270        0.14940
C          0.90030        2.72550        1.50740
C         -0.42490        1.91970        1.51230
H         -0.63410        1.77600       -2.04350
H         -1.44650        2.87750       -0.91180
H          1.46480        3.04800       -1.82880
H          0.71030        4.15570       -0.66480
H          1.62340        2.41720        2.26700
H          0.79620        3.81460        1.55010
H         -1.35060        2.49650        1.56360
H         -0.46810        1.11530        2.24760
