18
gdb 11972	2.87066	1.97166	1.75119	2.4142	67.89	-0.2267	0.0665	0.2931	868.0129	0.151644	-384.904857	-384.896617	-384.895673	-384.93706	31.46
C         -0.16430        1.51970        0.03410
C         -0.01480        0.00520       -0.00480
O         -1.23930       -0.64030       -0.27710
C          1.22960       -0.50510       -0.78540
O          1.90890       -0.82790        0.45000
C          0.71030       -0.60810        1.19410
C          0.71100       -0.25070        2.63990
C          0.17650       -1.59940        2.17080
H          0.78370        1.99770        0.29480
H         -0.47660        1.90440       -0.94530
H         -0.91530        1.81240        0.77460
H         -1.72470       -0.11280       -0.91960
H          1.01330       -1.39860       -1.38290
H          1.79010        0.22450       -1.38020
H          1.67330       -0.24080        3.14080
H          0.00690        0.49530        2.99510
H         -0.89470       -1.76790        2.18200
H          0.78720       -2.47370        2.36820
