20
gdb 7540	4.78621	0.99493	0.95082	0.5147	71.65	-0.2503	0.0676	0.3179	1294.9376	0.174775	-386.12183	-386.112174	-386.11123	-386.156063	35.23
C         -0.10050        1.48100       -0.13510
C          0.02480       -0.01700        0.02770
C          1.38230       -0.69140       -0.07430
C          0.65970       -0.61930        1.25290
O          1.13260        0.31270        2.19830
C          0.07430       -1.87570        1.86850
C          1.10500       -2.71600        2.62820
O          0.55440       -3.90350        3.17430
H          0.72090        1.99530        0.36800
H         -0.09110        1.76100       -1.19400
H         -1.03630        1.84800        0.30040
H         -0.80650       -0.58730       -0.37980
H          1.46160       -1.64790       -0.58070
H          2.24150       -0.03950       -0.19870
H          2.02110        0.05080        2.45920
H         -0.73070       -1.58410        2.55800
H         -0.37720       -2.49780        1.08800
H          1.89640       -3.04400        1.94520
H          1.58120       -2.10400        3.41120
H         -0.12370       -3.64710        3.80770
