14
gdb 2638	7.7899	1.14662	1.06053	3.3895	55.85	-0.2518	-0.0289	0.2229	1036.641	0.112092	-361.745554	-361.737602	-361.736658	-361.779303	25.916
O         -0.10880        0.28220        0.45780
C         -0.03040        1.30080       -0.17920
C          1.17300        2.21480       -0.20290
C          1.73280        2.37600       -1.63200
N          2.80480        3.35420       -1.71290
C          2.55080        4.68860       -1.76420
O          1.43880        5.17400       -1.78400
H         -0.87620        1.64090       -0.82160
H          0.85300        3.20760        0.13790
H          1.93080        1.82560        0.48220
H          2.11220        1.42020       -2.00400
H          0.93390        2.70770       -2.30180
H          3.75950        3.04650       -1.62340
H          3.47980        5.29100       -1.79710
