12
gdb 4407	3.77147	2.09749	1.34871	5.0101	63.97	-0.2187	-0.0617	0.157	825.6606	0.0847	-414.708686	-414.702104	-414.70116	-414.73929	24.898
N          0.07030        1.34700        0.14560
C         -0.05810       -0.00460        0.05040
C         -1.23260       -0.71400        0.01960
N         -1.22080       -2.06890       -0.01910
C         -0.08710       -2.70610       -0.02980
C          1.20890       -2.05790       -0.00800
O          2.30590       -2.53760       -0.02240
O          1.12040       -0.63430        0.03100
H          0.96960        1.73290       -0.09660
H         -0.73180        1.91130       -0.08070
H         -2.19090       -0.21000        0.03110
H         -0.08210       -3.79070       -0.06090
