13
gdb 3234	5.62921	2.71215	2.3632	3.2974	52.71	-0.2477	0.046	0.2936	596.0315	0.099958	-344.35722	-344.351352	-344.350408	-344.386523	22.618
C         -0.08090        1.53140        0.06190
C          0.13040        0.05620        0.02010
O         -0.78100       -0.82140        0.68060
C          0.61050       -0.93470        0.98680
C          1.30120       -1.75190       -0.17760
O          0.29950       -2.10490       -1.12850
C          0.81680       -0.77670       -1.15220
H          0.83130        2.06230       -0.23030
H         -0.87870        1.82900       -0.62800
H         -0.36260        1.84840        1.06950
H          0.92390       -0.84780        2.02010
H          2.21000       -2.33850       -0.13410
H          1.24690       -0.40160       -2.07320
