12
gdb 21931	6.85559	1.30002	1.12643	2.378	51.84	-0.2701	-0.0268	0.2433	970.9265	0.084034	-451.790591	-451.783467	-451.782523	-451.822964	24.947
O          0.42920        0.55540        0.90950
C         -0.03030        0.08860       -0.33710
C         -1.45440       -0.38210       -0.29610
N         -1.99700       -1.39940       -0.89470
C         -3.31110       -1.27560       -0.50910
O         -4.25130       -2.13030       -0.90260
N         -3.58610       -0.26570        0.27710
O         -2.31790        0.34310        0.41540
H         -0.15090        1.26830        1.19850
H          0.05980        0.85270       -1.12680
H          0.59790       -0.75640       -0.62690
H         -3.82190       -2.79000       -1.46130
