16
gdb 11606	6.14105	0.97233	0.88705	1.1262	62.06	-0.2514	0.0546	0.3059	1267.1082	0.130826	-417.070543	-417.062127	-417.061182	-417.10489	29.522
N         -0.20170        1.21920        0.23530
C          0.03390       -0.09970       -0.02950
O          1.10980       -0.58070       -0.29870
O         -1.13030       -0.79510        0.02300
C         -1.01610       -2.19020       -0.30580
C         -2.38790       -2.79230       -0.22550
C         -2.52990       -4.20850        0.19480
N         -2.98140       -3.12260        1.07870
H          0.60520        1.78760        0.42510
H         -1.07960        1.48450        0.64800
H         -0.59020       -2.28970       -1.30980
H         -0.32700       -2.67540        0.39520
H         -3.10410       -2.38480       -0.93560
H         -3.32280       -4.82010       -0.22520
H         -1.62700       -4.75610        0.45410
H         -2.29750       -2.96730        1.81630
