14
gdb 18997	5.58877	1.95788	1.73178	1.4528	62.44	-0.2472	0.0095	0.2567	741.7266	0.110277	-378.660274	-378.654869	-378.653925	-378.689645	22.093
N         -0.01350        1.28380       -0.02320
C         -0.02910        0.02570       -0.00520
O          1.07110       -0.81590       -0.02710
C          0.47830       -2.11040        0.00900
C         -0.79870       -2.14160       -0.87070
N         -1.38230       -3.15360        0.08040
C         -0.74260       -2.11600        0.96560
C         -1.18920       -0.92030        0.04350
H          0.94640        1.63340       -0.05740
H          1.21740       -2.90570       -0.00260
H         -0.88190       -2.22400       -1.95460
H         -2.39850       -3.03830        0.10990
H         -0.75920       -2.16820        2.05440
H         -2.20190       -0.52630        0.06900
