13
gdb 12952	2.75026	2.27445	1.6966	2.6837	54.07	-0.2523	-0.0087	0.2435	783.312	0.095127	-435.713721	-435.706644	-435.7057	-435.744794	26.709
N         -0.12710        1.51600       -0.14780
C         -0.03970        0.11430       -0.03320
C         -0.36960       -0.80960       -1.24170
O          0.47200       -1.76890       -1.76680
C         -1.12030       -0.98410        0.01620
O         -0.29360       -1.78360        0.90650
C          0.64340       -0.73720        1.00630
O          1.56270       -0.67270        1.75220
H         -0.17760        1.97180        0.75700
H          0.66270        1.90180       -0.65410
H         -0.86880       -0.23890       -2.02000
H          0.60060       -2.44440       -1.08750
H         -2.17990       -0.94230        0.22690
