17
gdb 13237	6.97318	0.88778	0.84679	4.8033	69.23	-0.2608	0.0394	0.3002	1327.5358	0.142447	-363.862769	-363.854582	-363.853638	-363.896613	28.457
N         -0.02110       -1.12710       -0.19540
C         -0.00950        0.02640       -0.12660
C          0.02930        1.48290       -0.03330
C          1.45380        2.02520        0.19930
C          1.45320        3.54410        0.24100
C          2.80650        4.27380        0.09070
C          2.16450        4.90360       -1.16220
O          0.96250        4.11880       -0.99430
H         -0.36950        1.91300       -0.95790
H         -0.63690        1.79830        0.77850
H          1.85900        1.63300        1.13920
H          2.10770        1.68250       -0.60960
H          0.85080        3.89620        1.09190
H          3.06910        4.96310        0.89380
H          3.65270        3.61320       -0.10820
H          1.95900        5.97840       -1.09110
H          2.65600        4.69900       -2.11980
