15
gdb 20235	4.33413	2.69106	2.30987	1.276	61.54	-0.2497	0.0703	0.32	641.446	0.122454	-362.599065	-362.594005	-362.593061	-362.627967	21.247
C         -0.03500        1.59930       -0.01390
O          1.33060        2.05790       -0.04090
C          2.15800        0.91390        0.02840
C          2.08480        0.08850        1.31570
C          0.70270       -0.47870        1.30210
C          0.05880        0.07070        0.02600
C          1.42920       -0.29150       -0.59780
N          1.80580       -1.20460        0.59260
H         -0.54520        2.00420        0.86910
H         -0.54930        1.96930       -0.91000
H          3.15660        1.16350       -0.32750
H          2.70700        0.12540        2.20160
H          0.22500       -0.88800        2.18450
H         -0.81370       -0.47460       -0.33120
H          1.56640       -0.62650       -1.62260
