22
gdb 7201	5.35362	0.74642	0.68463	0.4062	76.07	-0.2515	0.0797	0.3312	1673.383	0.197843	-387.327874	-387.31726	-387.316315	-387.363972	36.709
C         -0.06170        1.39200       -0.00550
O         -0.00460       -0.01260        0.00040
C         -1.28070       -0.61660        0.01820
C         -1.11910       -2.13700        0.06480
C         -0.36650       -2.56390        1.33340
C         -2.49690       -2.80340       -0.07570
C         -2.45140       -4.31920       -0.22610
O         -3.78010       -4.76440       -0.46240
H          0.96620        1.76320       -0.02220
H         -0.59230        1.77700       -0.89130
H         -0.56720        1.78590        0.89100
H         -1.85610       -0.26850        0.89550
H         -1.85180       -0.32230       -0.87920
H         -0.50910       -2.41190       -0.80740
H         -0.11000       -3.62700        1.31700
H          0.55890       -1.99230        1.43200
H         -0.97590       -2.38070        2.22720
H         -3.12420       -2.55820        0.79120
H         -3.01400       -2.40320       -0.95670
H         -1.78650       -4.58780       -1.06420
H         -2.03740       -4.78480        0.68090
H         -3.76840       -5.72400       -0.52220
