13
gdb 16722	6.59883	1.4922	1.33141	5.1085	65.55	-0.2464	-0.0486	0.1978	877.2133	0.097443	-357.644015	-357.63763	-357.636686	-357.674438	24.319
N          0.08690       -1.10630        0.02760
C         -0.00130        0.04620        0.03760
C         -0.05550        1.47930        0.02720
N         -1.15350        2.15160       -0.01030
C         -0.79100        3.53750        0.00320
C         -0.04400        4.06260        1.21310
C          0.75820        3.59540        0.03740
N          1.12680        2.20310        0.08060
H         -1.43360        4.20700       -0.55620
H         -0.09630        5.13430        1.36730
H         -0.03720        3.46330        2.11730
H          1.38790        4.25940       -0.54100
H          1.94590        1.86850       -0.40360
