18
gdb 15619	3.23121	1.68754	1.14029	2.4377	71.78	-0.2199	0.0289	0.2488	1037.7034	0.152535	-384.939589	-384.930642	-384.929698	-384.974637	30.877
C          0.18820        1.55150       -0.00310
C          0.01780        0.06560       -0.05450
C         -1.07100       -0.70590       -0.00580
C         -2.52730       -0.39130        0.11990
O         -2.77480        1.00320        0.10590
C         -0.66270       -2.15720       -0.09940
O          0.75370       -2.16070       -0.18990
C          1.23130       -0.82260       -0.18550
H          0.83880        1.83360        0.83510
H          0.68440        1.91360       -0.91310
H         -0.76530        2.06320        0.10350
H         -3.06540       -0.89460       -0.70390
H         -2.90610       -0.85020        1.05130
H         -3.71950        1.13780        0.22110
H         -0.98260       -2.74000        0.78120
H         -1.09920       -2.65410       -0.98310
H          1.79090       -0.61710       -1.11390
H          1.93760       -0.67930        0.64920
