16
gdb 8874	3.33753	1.36406	1.14064	1.8566	62.72	-0.2501	-0.0974	0.1527	1076.0729	0.126239	-420.877794	-420.868432	-420.867488	-420.912577	31.345
C         -0.15330        1.30050       -0.03480
O         -0.05850       -0.10680        0.00430
C          0.52160       -0.68190       -1.13870
C          2.05820       -0.55720       -1.16360
C          0.12980       -2.15400       -1.15720
O         -0.31780       -2.76330       -0.21850
C          0.32290       -2.91280       -2.47960
O          0.72530       -2.41070       -3.49650
H          0.82980        1.79210       -0.02640
H         -0.70570        1.64490       -0.92270
H         -0.70010        1.60420        0.86050
H          0.11880       -0.22520       -2.05830
H          2.35020        0.49590       -1.17290
H          2.48570       -1.02850       -0.27410
H          2.46950       -1.02700       -2.05970
H          0.03050       -3.98100       -2.39650
