15
gdb 1715	4.7079	2.13499	1.91552	2.3577	57.78	-0.2656	-0.0352	0.2304	716.0438	0.124213	-345.655534	-345.648676	-345.647731	-345.686216	25.586
O          0.24010        1.50860       -0.25210
C         -0.01170        0.17080        0.02840
C          0.14460       -0.29420        1.51760
C         -1.17590       -1.09620        1.38560
C         -1.51200       -0.27690        0.11290
C          0.77330       -0.71220       -0.90810
O          1.50060       -0.25800       -1.75980
H          0.86810        1.51360       -0.99280
H          1.05630       -0.82830        1.79790
H          0.03580        0.58370        2.15820
H         -1.00150       -2.15320        1.16700
H         -1.87990       -1.03150        2.21670
H         -2.11550        0.60610        0.33400
H         -1.94380       -0.79700       -0.74630
H          0.64880       -1.80640       -0.77530
