13
gdb 19782	3.34451	2.60991	1.76593	4.0078	57.06	-0.2371	-0.0462	0.1909	717.6091	0.096572	-398.553229	-398.547361	-398.546417	-398.583168	22.857
O          0.00710        0.01280       -0.02490
C         -0.01370        1.21590        0.01610
C         -1.25860        2.08360       -0.04410
N         -1.36480        3.14490        0.99230
C         -0.82150        3.47930       -0.33060
C          0.70820        3.49310       -0.35370
O          1.30000        3.14700        0.88880
C          1.20410        2.12300       -0.11230
H         -2.15960        1.63290       -0.44470
H         -2.34100        3.43430        1.03070
H         -1.36880        4.12980       -1.00290
H          1.24330        4.21690       -0.96130
H          2.13940        1.70880       -0.47750
