16
gdb 5726	4.71135	2.11276	1.50967	3.8377	70.03	-0.2107	0.0405	0.2512	817.529	0.135316	-342.837633	-342.831537	-342.830593	-342.867819	23.76
C          0.11690        1.43850       -0.33010
C          1.44190        1.97660        0.27880
N          2.12670        0.74520        0.63070
C          3.37390        0.35010        1.05330
C          3.24520       -0.99860        1.29190
N          1.95900       -1.43410        1.04110
C          1.32320       -0.35370        0.65110
C         -0.07730        0.01430        0.26600
H         -0.72310        2.10460       -0.12450
H          0.22540        1.36820       -1.41590
H          2.02120        2.57180       -0.43260
H          1.26760        2.59020        1.17150
H          4.20780        1.02770        1.12770
H          4.01240       -1.68300        1.62260
H         -0.73280        0.03160        1.14550
H         -0.51930       -0.68200       -0.45030
