20
gdb 7488	3.71405	1.20449	1.10348	2.2258	70.63	-0.2434	0.0745	0.318	1161.5826	0.175765	-386.122417	-386.11327	-386.112326	-386.156596	33.101
C         -0.05790        1.73860       -0.25000
C         -0.02430        0.22190       -0.10720
C         -1.39590       -0.39740        0.16980
C         -2.04580        0.06930        1.47640
O         -3.25870       -0.61840        1.74950
C          0.81220       -0.52340       -1.18260
C          1.74000       -0.89730       -0.01220
O          0.92910       -0.17110        0.93130
H          0.93980        2.12100       -0.48340
H         -0.74030        2.03900       -1.05280
H         -0.38870        2.21310        0.67830
H         -2.07100       -0.19090       -0.67010
H         -1.27150       -1.48780        0.21750
H         -1.32440       -0.03700        2.29910
H         -2.32230        1.12610        1.41560
H         -3.04080       -1.54260        1.90620
H          0.30340       -1.35760       -1.66900
H          1.25570        0.12020       -1.94450
H          1.79380       -1.96620        0.22930
H          2.76100       -0.50010       -0.06490
