19
gdb 6462	3.67662	1.44147	1.30099	3.0177	73.04	-0.2566	0.0326	0.2892	1038.6923	0.164381	-365.081396	-365.072838	-365.071893	-365.114311	32.114
C         -0.08170        1.62570       -0.04210
C         -0.28000        0.11550        0.12050
C          0.63620       -0.53330        1.15480
C          0.47330       -0.00520        2.56960
C          0.77870       -2.07260        1.02650
C          2.19420       -1.75880        0.59840
N          3.18250       -2.44700        0.24540
O          2.05430       -0.39570        0.72640
H          0.96670        1.85310       -0.25580
H         -0.68640        2.00380       -0.87140
H         -0.37410        2.17840        0.85560
H         -1.31860       -0.10650        0.39850
H         -0.10280       -0.37800       -0.84230
H         -0.55150       -0.16890        2.92000
H          1.15700       -0.51770        3.25180
H          0.68550        1.06590        2.61800
H          0.69890       -2.63700        1.95740
H          0.16180       -2.54530        0.25980
H          3.98420       -1.85180        0.02840
