22
gdb 7487	3.91657	1.1057	1.04806	1.3516	77.98	-0.2613	0.0781	0.3394	1239.9263	0.199556	-350.193896	-350.184588	-350.183644	-350.227834	34.693
C          0.02850        1.60310        0.10560
C         -0.01260        0.07450        0.00730
C         -1.42530       -0.45660       -0.24790
C         -2.05960       -0.00380       -1.55900
O         -3.28760       -0.70570       -1.70430
C          1.11800       -0.48090       -0.92410
C          1.99380       -0.75420        0.32720
C          0.73000       -0.59060        1.21280
H          1.03550        1.95510        0.35420
H         -0.25920        2.08060       -0.83720
H         -0.65080        1.96370        0.88690
H         -1.40230       -1.55330       -0.25810
H         -2.08730       -0.16830        0.57950
H         -2.22930        1.08350       -1.55050
H         -1.37780       -0.22100       -2.39790
H         -3.71090       -0.40410       -2.51330
H          0.81520       -1.40620       -1.42380
H          1.51900        0.20210       -1.67870
H          2.50850       -1.71650        0.37100
H          2.73260        0.03270        0.50080
H          0.82560        0.01020        2.12200
H          0.28640       -1.55390        1.48210
