10
gdb 767	9.53874	3.86975	2.76025	1.9435	43.5	-0.2143	0.0189	0.2332	443.4355	0.076774	-297.555801	-297.550925	-297.549981	-297.583688	17.915
N         -0.01940        1.34500        0.16000
C          0.00290       -0.03080        0.05300
N         -1.09880       -0.77070        0.02160
N         -0.57490       -2.03200       -0.01600
C          0.76560       -1.98230       -0.01320
N          1.17830       -0.72930        0.02930
H          0.80990        1.78220       -0.21400
H         -0.87340        1.76600       -0.17510
H         -1.19030       -2.82690       -0.04230
H          1.39300       -2.86060       -0.04230
