15
gdb 14115	3.89449	1.88419	1.45055	2.6624	62.06	-0.2414	0.0163	0.2577	853.0435	0.118966	-399.791497	-399.784114	-399.78317	-399.823163	27.59
N          0.05850        0.88770       -0.82710
C         -0.01160        0.01170        0.20890
O          0.85260       -0.13930        1.05380
C         -1.27190       -0.78250        0.21920
C         -1.86410       -1.43730        1.42830
C         -1.48790       -2.28960        0.24440
C         -2.45280       -2.02660       -0.90700
O         -2.26020       -0.58490       -0.80270
H          0.87180        1.47190       -0.92110
H         -0.68870        0.93580       -1.49910
H         -1.18240       -1.50510        2.26850
H         -2.90650       -1.24280        1.66450
H         -0.74710       -3.07510        0.29060
H         -2.09420       -2.39080       -1.87540
H         -3.50210       -2.30920       -0.76630
