14
gdb 2787	4.38748	2.39241	1.65451	1.6477	55.21	-0.2561	0.0144	0.2705	738.5719	0.113208	-361.692023	-361.685066	-361.684122	-361.723232	24.279
C         -0.18450        1.37690       -0.18040
O          0.25010        0.05000        0.08070
C          0.76550       -0.58870       -1.04630
C          1.10820       -2.07050       -0.81180
O          0.16820       -2.46220       -1.86360
C         -0.23180       -1.15710       -2.05800
N         -1.12020       -0.66890       -2.79530
H          0.64870        2.00380       -0.53270
H         -0.98370        1.39630       -0.93010
H         -0.55650        1.77660        0.76510
H          1.56660       -0.00060       -1.51820
H          2.12300       -2.39490       -1.04880
H          0.78850       -2.44260        0.16360
H         -1.61980       -1.39380       -3.31430
