13
gdb 11373	6.22945	1.30595	1.09428	2.5935	55.61	-0.2707	-0.0208	0.2499	999.88	0.094968	-435.775561	-435.768227	-435.767283	-435.807689	25.613
O          0.04530        1.38960        0.00850
C         -0.04400       -0.01010        0.00230
C         -1.48330       -0.41770        0.01330
N         -2.51810        0.31150        0.02350
C         -3.64590       -0.61330        0.03080
C         -3.03130       -2.00840        0.02240
O         -3.51090       -3.09650        0.02390
O         -1.65350       -1.79260        0.01160
H          0.97700        1.62660       -0.00670
H          0.42060       -0.46810       -0.88700
H          0.43650       -0.47680        0.87870
H         -4.27400       -0.47500        0.91730
H         -4.28870       -0.47100       -0.84460
