17
gdb 11315	5.66958	1.23105	1.03505	5.7696	79.62	-0.1986	-0.0252	0.1734	1116.1787	0.142738	-363.889539	-363.881502	-363.880558	-363.922231	28.473
C         -0.03940        1.41280        0.09440
N          0.01130       -0.00100       -0.18690
C         -1.17460       -0.84610        0.03850
C         -0.63940       -2.29490       -0.10360
C          0.86450       -2.10220       -0.01120
C          1.84040       -3.15230        0.05540
O          1.58440       -4.34490        0.08290
C          1.12780       -0.77160       -0.07330
H          0.93020        1.86760       -0.12290
H         -0.79260        1.89810       -0.53550
H         -0.29340        1.61910        1.14650
H         -1.56860       -0.65570        1.04880
H         -1.96410       -0.59770       -0.67740
H         -1.02980       -2.96220        0.66850
H         -0.91740       -2.73270       -1.06950
H          2.89710       -2.79510        0.09020
H          2.10220       -0.29600       -0.06840
