16
gdb 18130	3.88565	2.14258	1.63633	0.0208	58.63	-0.248	0.0721	0.3201	785.7649	0.133343	-420.873923	-420.867631	-420.866687	-420.904677	23.88
C          0.23210        1.39260        0.22420
O          1.16060        1.91860       -0.69780
C          2.01290        0.84120       -1.05770
C          3.29270        0.70830       -0.20400
O          3.41370       -0.67370        0.09810
C          2.10000       -1.16050        0.32860
C          1.19800       -0.43570       -0.69380
O         -0.02380        0.06260       -0.16890
H          0.63980        1.42490        1.25050
H         -0.69520        1.96960        0.17240
H          2.23300        0.93410       -2.12250
H          4.20260        1.01830       -0.72220
H          3.18320        1.31720        0.70790
H          2.11960       -2.24570        0.20790
H          1.75120       -0.92680        1.34730
H          0.95790       -1.06410       -1.55310
