17
gdb 1963	7.52443	1.42914	1.27779	2.9522	64.9	-0.2392	-0.0162	0.223	946.2511	0.147052	-309.735489	-309.727948	-309.727004	-309.767494	27.467
C          0.08860        1.48150       -0.17840
C         -0.00870       -0.02990        0.04850
C         -1.44440       -0.53560        0.13370
C         -2.29560       -0.51530       -1.17950
C         -2.67800       -1.97610       -0.89340
O         -3.50540       -2.71850       -1.33570
C         -1.65320       -2.08010        0.24700
H          1.13120        1.80750       -0.24160
H         -0.40930        1.77700       -1.10830
H         -0.38480        2.03510        0.64010
H          0.50760       -0.55990       -0.76400
H          0.52100       -0.29830        0.97170
H         -1.97430       -0.01660        0.93920
H         -3.12510        0.19200       -1.25710
H         -1.68380       -0.43120       -2.08590
H         -0.77020       -2.65560       -0.05580
H         -2.02360       -2.48800        1.19090
