12
gdb 21382	5.54143	2.21343	1.58166	2.5751	61.23	-0.2193	-0.0066	0.2127	722.6689	0.088099	-377.535303	-377.529972	-377.529028	-377.564535	21.066
N          0.02700        1.35780        0.00960
N          1.30480        1.82440       -0.00030
C          2.10120        0.75300       -0.01410
C          1.30770       -0.40520       -0.01280
C         -0.01350        0.00170        0.00250
C         -0.81550       -1.18400        0.00370
C          0.09600       -2.19980       -0.01090
O          1.39600       -1.76300       -0.02120
H         -0.72540        2.02290        0.02070
H          3.17220        0.87690       -0.02390
H         -1.88750       -1.29460        0.01360
H         -0.02460       -3.27120       -0.01570
