21
gdb 7364	3.43259	1.01432	0.92968	3.4046	75.58	-0.2393	0.038	0.2772	1363.9676	0.186868	-366.31302	-366.302455	-366.301511	-366.349867	36.55
C         -0.07650        1.47670       -0.34810
C          0.00620       -0.01190        0.00380
C         -1.37330       -0.67850        0.05280
C         -1.35100       -2.20080        0.32060
C         -0.80620       -2.55970        1.71000
C         -2.78670       -2.72030        0.19570
N         -3.06090       -3.42210       -0.94320
O         -3.63540       -2.49620        1.03840
H          0.91630        1.93650       -0.37370
H         -0.53970        1.62740       -1.32960
H         -0.67830        2.02260        0.38680
H          0.63490       -0.52840       -0.73430
H          0.51310       -0.12530        0.96890
H         -1.99440       -0.20470        0.82270
H         -1.88370       -0.49880       -0.90320
H         -0.72380       -2.67610       -0.44630
H          0.20760       -2.17750        1.85250
H         -1.45730       -2.13990        2.48100
H         -0.77760       -3.64470        1.85200
H         -2.35670       -3.64560       -1.62300
H         -3.99540       -3.77340       -1.07570
