11
gdb 1364	8.90113	1.44646	1.25373	2.9432	59.98	-0.267	-0.0641	0.2029	873.4893	0.074543	-306.056425	-306.04892	-306.047976	-306.08835	25.907
O         -0.12630       -0.12640        0.00080
C         -0.07050        1.07850        0.00540
C          1.24000        1.87810       -0.00150
C          2.43940        1.06060       -0.01540
C          3.43640        0.39240       -0.02690
C         -1.26280        1.91030        0.01820
C         -2.23800        2.61560        0.02870
H          1.20760        2.55090       -0.86980
H          1.22190        2.54220        0.87380
H          4.31450       -0.20460       -0.03710
H         -3.11250        3.22020        0.03810
