16
gdb 3066	12.55772	1.05151	1.04482	2.7958	68.37	-0.228	0.0232	0.2512	1146.2956	0.135415	-325.753541	-325.745664	-325.744719	-325.786356	27.069
C          0.10800        1.35530        0.07900
O         -0.15450       -0.03330       -0.06880
C          0.54190       -0.65500       -1.04310
N          0.38250       -1.88540       -1.25670
C          1.14070       -2.48870       -2.29560
C          1.58210       -3.91980       -2.09060
C          0.48500       -3.60720       -3.07280
H          1.15820        1.54240        0.33610
H         -0.14440        1.91290       -0.83160
H         -0.52540        1.70310        0.89590
H          1.22890       -0.00200       -1.60310
H          1.82340       -1.84170       -2.85220
H          2.55570       -4.20970       -2.46980
H          1.29980       -4.37880       -1.15070
H         -0.53020       -3.85740       -2.78910
H          0.69740       -3.68020       -4.13360
