16
gdb 11253	4.81053	1.39007	1.22576	3.4247	70.91	-0.2409	-0.0066	0.2344	999.3772	0.131693	-342.798404	-342.790832	-342.789888	-342.830443	28.045
C          0.13310        1.65100       -0.01940
C         -0.00180        0.12820        0.07640
N          0.60900       -0.53740       -1.09380
C          1.31300       -1.75220       -0.66290
C          1.49280       -1.52230        0.82630
C          0.75670       -0.49180        1.22240
C          0.55700       -2.99950       -0.92340
N         -0.05060       -3.95600       -1.15420
H          1.18640        1.93410       -0.09620
H         -0.38790        2.02740       -0.90510
H         -0.30400        2.13600        0.86000
H         -1.07380       -0.11710        0.18100
H         -0.05140       -0.71480       -1.83920
H          2.27560       -1.85120       -1.18460
H          2.12030       -2.16030        1.43370
H          0.68190       -0.11640        2.23560
