12
gdb 9121	5.28351	0.82737	0.71856	6.0155	64.19	-0.2581	-0.1076	0.1505	1439.9008	0.079841	-418.440448	-418.431566	-418.430622	-418.475739	28.317
O         -0.09650        1.48310        0.00990
C         -0.02580        0.06880        0.00300
C         -1.36850       -0.49130        0.01240
C         -2.46720       -0.99340        0.01970
C         -3.80370       -1.53160        0.02930
O         -4.07170       -2.70990        0.02670
C         -4.91700       -0.45170        0.04430
O         -6.07830       -0.74340        0.05350
H          0.80520        1.82030        0.00580
H          0.49890       -0.31440       -0.88780
H          0.51460       -0.32230        0.88100
H         -4.55210        0.59790        0.04580
