12
gdb 1462	9.26855	1.34536	1.18348	1.4382	50.12	-0.2785	-0.0235	0.255	924.4359	0.088035	-397.667072	-397.659391	-397.658446	-397.699608	25.013
O          0.06830        1.35150        0.00870
C         -0.05600       -0.04450        0.00240
C         -1.52850       -0.40060        0.01420
O         -2.45250        0.35630        0.02720
O         -1.63390       -1.77260        0.00800
C         -2.89260       -2.32260        0.01740
N         -2.98530       -3.57630        0.01130
H          1.00540        1.56650       -0.00190
H          0.38720       -0.51920       -0.88750
H          0.40350       -0.52860        0.87890
H         -3.68250       -1.57160        0.02940
H         -3.96720       -3.84910        0.01960
