20
gdb 11855	5.14693	1.19728	1.12257	1.4924	75.99	-0.2228	0.0835	0.3063	1157.9504	0.176172	-348.980273	-348.971924	-348.97098	-349.013419	31.52
C         -0.37260        1.39620       -0.13970
C         -0.05850       -0.10020       -0.06050
C          0.97030       -0.53200       -1.09010
C          1.16560       -2.04650       -1.33620
C          0.71740       -1.71830       -2.75450
C          1.28420       -2.15570       -4.06490
C         -0.16370       -2.46570       -3.69740
O          0.50060       -0.33890       -2.45510
H          0.51900        1.99990        0.06380
H         -0.73240        1.65560       -1.13930
H         -1.14100        1.67960        0.58560
H          0.32280       -0.36040        0.93630
H         -0.97390       -0.68490       -0.21450
H          1.91160        0.01490       -0.93940
H          2.18610       -2.41980       -1.23320
H          0.48360       -2.68680       -0.77070
H          1.45280       -1.38570       -4.81010
H          2.00400       -2.96810       -4.07740
H         -0.43400       -3.48960       -3.45880
H         -0.93680       -1.89740       -4.20380
