19
gdb 10708	2.47228	1.97543	1.37098	2.4939	71.57	-0.236	-0.0128	0.2232	991.09	0.163687	-365.064381	-365.055257	-365.054312	-365.098289	32.957
C          0.99030        0.35740       -0.55420
C          0.05360       -0.84400       -0.37390
C         -1.32230       -0.46210        0.14380
C         -2.00850       -1.39220        1.09940
N         -1.49860       -0.10500        1.57000
C         -2.18780        0.31470       -0.82430
C         -3.33560        1.12980       -0.26360
O         -1.94620        0.28010       -2.01230
H          1.97580        0.03010       -0.89850
H          0.58970        1.05330       -1.29570
H          1.13020        0.90310        0.38560
H         -0.07040       -1.35590       -1.33280
H          0.50040       -1.56480        0.32220
H         -3.09030       -1.49020        1.09830
H         -1.47410       -2.30340        1.35590
H         -0.61550       -0.23450        2.05880
H         -2.93690        1.93790        0.35750
H         -3.91610        1.54050       -1.09020
H         -3.98010        0.53530        0.39000
