20
gdb 6276	3.67639	1.0194	0.95988	3.0265	76.11	-0.2684	0.0279	0.2964	1306.8557	0.176317	-345.203826	-345.193999	-345.193055	-345.238784	35.224
C         -0.04710        1.55990       -0.06250
C          0.02300        0.02700       -0.03310
C          0.74880       -0.50750       -1.27530
C          0.71050       -0.50350        1.23780
C         -0.03340       -0.18460        2.55100
N         -1.38540       -0.74950        2.53820
C          0.76960       -0.64220        3.70730
N          1.36420       -1.02830        4.62110
H          0.95450        2.00280        0.00040
H         -0.50350        1.90670       -0.99510
H         -0.64740        1.96310        0.75870
H         -1.00270       -0.35890       -0.03810
H          1.78500       -0.15000       -1.31310
H          0.77470       -1.60230       -1.28500
H          0.25130       -0.17610       -2.19230
H          0.82050       -1.59350        1.16770
H          1.72680       -0.09730        1.31000
H         -0.13450        0.90210        2.64800
H         -1.33180       -1.76470        2.52060
H         -1.87710       -0.50240        3.39160
