13
gdb 23744	3.39004	2.31678	1.3779	3.452	64.09	-0.2155	-0.017	0.1985	816.0458	0.097551	-402.811618	-402.805268	-402.804324	-402.84188	24.787
N         -0.01260        1.42070        0.14590
C         -0.03950        0.03640        0.04620
C         -1.20570       -0.72650        0.03300
C         -1.11750       -2.11790       -0.00590
C          0.13370       -2.71390       -0.03290
N          1.26880       -1.99520       -0.02710
C          1.15900       -0.69930        0.01020
F          2.29660        0.01550        0.00710
H          0.85670        1.84000       -0.14840
H         -0.82140        1.89790       -0.22340
H         -2.17180       -0.23160        0.05700
H         -2.01520       -2.72530       -0.01600
H          0.24810       -3.79260       -0.06300
