17
gdb 6144	4.4498	1.3703	1.26583	4.4616	68.7	-0.275	0.0057	0.2807	1008.2081	0.140658	-363.869602	-363.861258	-363.860314	-363.902581	30.53
C         -0.41580        1.54520        0.00720
C          0.08660        0.11290       -0.07240
C         -0.97560       -0.90550        0.31320
C          0.91510       -0.24250       -1.33720
C          2.09200       -0.43270       -0.34990
O          1.28150       -0.05300        0.77070
C          2.61840       -1.79840       -0.23460
N          3.02980       -2.87580       -0.15930
H          0.37680        2.25240       -0.25250
H         -1.25630        1.69720       -0.67830
H         -0.75710        1.77100        1.02230
H         -1.83060       -0.84620       -0.36890
H         -0.57270       -1.92130        0.27870
H         -1.33310       -0.71360        1.32960
H          0.60250       -1.13990       -1.87050
H          1.05790        0.57610       -2.04330
H          2.93660        0.25180       -0.49230
