17
gdb 18613	2.89796	2.37083	1.84357	2.3847	68.69	-0.2209	-0.0025	0.2185	795.0234	0.142555	-363.823931	-363.816526	-363.815582	-363.855112	28.534
C         -0.21000        1.50660       -0.16200
N          0.05130        0.08730        0.03340
C          1.37170       -0.52280       -0.16210
C          2.57250        0.37160       -0.10980
C          2.69580        0.94570        1.08730
C          1.63840        0.45040        2.06360
O          0.87710        1.48060        2.68810
C          0.73930       -0.43990        1.19810
H          0.61320        2.17590        0.11280
H         -0.45900        1.66480       -1.21680
H         -1.07880        1.77860        0.44300
H          1.38480       -1.42480       -0.76750
H          3.20900        0.55390       -0.96850
H          3.42970        1.69630        1.36430
H          2.10690       -0.18180        2.83680
H          1.47210        1.99580        3.24220
H          0.25670       -1.28510        1.67980
