10
gdb 768	9.67915	3.70809	2.6898	1.525	43.82	-0.2181	0.006	0.2241	451.4203	0.076571	-297.530335	-297.525359	-297.524415	-297.558364	18.02
N         -0.03610        1.38050        0.16700
C          0.03560       -0.00170        0.04670
N         -1.05490       -0.76950        0.02250
N         -0.54700       -2.00600       -0.02320
N          0.76820       -2.10610       -0.03810
C          1.17380       -0.83640        0.00750
H          0.68260        1.87120       -0.34630
H         -0.95320        1.73770       -0.06520
H         -1.14210       -2.81670       -0.04070
H          2.22150       -0.58270        0.01300
