15
gdb 20765	3.35144	2.01334	1.27768	3.5173	64.62	-0.2049	0.0224	0.2273	917.863	0.119379	-395.978435	-395.970348	-395.969404	-396.01052	29.711
C          0.00540        1.48660        0.01000
C          0.02760       -0.00750        0.03210
N          0.00040       -0.67900       -1.09480
O          0.03440       -2.04970       -0.70990
C          0.06550       -2.11810        0.62080
N          0.15670       -3.35410        1.20500
C          0.06360       -0.86400        1.17320
N          0.07350       -0.60140        2.56960
H          0.89120        1.89960        0.50490
H         -0.02020        1.84720       -1.01990
H         -0.87270        1.87590        0.53750
H         -0.29390       -4.10190        0.69710
H         -0.08110       -3.32890        2.18760
H          0.94860       -0.18890        2.87870
H         -0.66890        0.03440        2.84220
