17
gdb 5254	7.1878	1.10245	0.97137	2.7502	71.65	-0.1782	0.042	0.2202	1193.3056	0.144284	-360.078273	-360.07038	-360.069436	-360.110869	29.019
C         -0.06230        1.53990        0.00870
C         -0.05330        0.01900       -0.10400
N         -1.36140       -0.53060        0.20640
C         -1.54580       -1.90080        0.09190
C         -0.61340       -2.91460        0.10580
N         -1.36340       -4.08100        0.01600
C         -2.66650       -3.72050       -0.05850
N         -2.81770       -2.41390       -0.01700
H          0.93070        1.94850       -0.19860
H         -0.76060        1.98300       -0.71080
H         -0.36580        1.85260        1.01200
H          0.29550       -0.28490       -1.10730
H          0.66840       -0.39560        0.61220
H         -2.13320       -0.02310       -0.20580
H          0.45960       -2.92920        0.17390
H         -0.99870       -5.01750       -0.00050
H         -3.46450       -4.44280       -0.14330
