18
gdb 16970	3.24355	2.24328	2.01687	2.436	65.73	-0.2441	0.0783	0.3224	770.1778	0.157351	-384.95165	-384.945351	-384.944407	-384.981798	26.161
O          0.10630        1.39360       -0.11590
C          0.06500       -0.01180       -0.02740
C          0.68370       -0.60230        1.29090
C         -0.51910       -1.31060        1.95460
C         -1.54410       -0.23720        2.34690
O         -2.03180        0.26090        1.07710
C         -1.38750       -0.53810        0.06060
C         -1.23540       -1.90790        0.72050
H         -0.65340        1.70080        0.39950
H          0.57760       -0.39870       -0.91390
H          1.48390       -1.31590        1.07250
H          1.10530        0.20020        1.90170
H         -0.27130       -1.99910        2.76350
H         -2.38710       -0.64630        2.91840
H         -1.10420        0.58930        2.91690
H         -1.97430       -0.45600       -0.85430
H         -0.60890       -2.59710        0.14800
H         -2.19470       -2.38190        0.94380
