19
gdb 6381	5.05807	1.04938	0.93657	1.8579	69.66	-0.2144	0.0165	0.2309	1293.1905	0.163037	-402.213721	-402.203984	-402.20304	-402.248815	33.418
C          0.07090        1.35610        0.21090
O         -0.08320       -0.06110        0.06890
C         -1.35480       -0.51190        0.11990
O         -2.31040        0.20260        0.27430
C         -1.35550       -2.02520       -0.05110
N         -2.66690       -2.62510        0.05580
C         -3.53310       -2.30130       -1.07030
C         -2.57940       -4.06090        0.26700
H          1.14230        1.54650        0.14710
H         -0.45950        1.88400       -0.58590
H         -0.32090        1.69260        1.17420
H         -0.84030       -2.24780       -1.00800
H         -0.70720       -2.43070        0.73370
H         -3.14860       -2.69550       -2.03170
H         -4.52270       -2.73600       -0.90110
H         -3.64480       -1.21960       -1.15010
H         -1.98770       -4.27380        1.16320
H         -3.58370       -4.46770        0.41950
H         -2.12070       -4.60430       -0.58240
