15
gdb 5431	3.49872	1.89701	1.23958	2.8531	77.55	-0.1974	0.0193	0.2167	938.861	0.11898	-325.543923	-325.536181	-325.535237	-325.575797	29.03
C         -0.00210        1.50260        0.07700
C          0.01390        0.01520       -0.02030
C         -0.00060       -0.81190       -1.13760
C          0.02810       -2.16700       -0.66750
C          0.05810       -2.12490        0.69980
N          0.04910       -0.80060        1.07820
C         -0.03680       -0.37750       -2.48250
C         -0.06740       -0.01130       -3.63100
H          0.89510        1.89400        0.57270
H         -0.04220        1.92750       -0.92790
H         -0.87270        1.87060        0.63390
H          0.02580       -3.05040       -1.28560
H          0.08470       -2.91250        1.43490
H          0.06610       -0.47300        2.02850
H         -0.09390        0.30820       -4.64250
