13
gdb 16783	3.86999	2.1629	1.50917	2.1392	60.8	-0.2681	-0.021	0.2471	784.5964	0.098123	-394.806237	-394.800098	-394.799154	-394.836519	23.591
N         -0.11570        1.30580       -0.03140
C         -0.03060        0.04260        0.02100
N          1.08230       -0.79850        0.03880
C          0.76610       -2.15560       -0.01570
O          1.54560       -3.06520        0.00100
N         -0.66650       -2.27250       -0.10620
C         -1.31670       -1.84990        1.15430
C         -1.19510       -0.89730        0.01810
H          0.80150        1.75350       -0.05480
H          2.03940       -0.48790        0.10430
H         -2.27380       -2.32310        1.34490
H         -0.68680       -1.70180        2.02700
H         -2.06040       -0.63210       -0.57680
