14
gdb 2920	6.89864	1.97115	1.59259	1.3342	56.29	-0.2537	0.0239	0.2776	761.4658	0.113863	-361.717364	-361.710448	-361.709504	-361.748976	23.416
C         -0.04210        1.44140        0.03000
N         -0.02960       -0.00780        0.14790
C         -1.10770       -0.64850        0.12210
C         -1.25790       -2.15430        0.20560
O         -2.64310       -2.34160        0.46210
C         -3.28320       -1.22310       -0.08770
O         -2.37530       -0.12910        0.01500
H          0.63720        1.73740       -0.77680
H         -1.03140        1.87060       -0.16420
H          0.35440        1.87850        0.95360
H         -0.95170       -2.62600       -0.74060
H         -0.67660       -2.58550        1.02170
H         -3.53360       -1.37530       -1.15080
H         -4.18420       -1.00010        0.48970
