16
gdb 16810	3.60126	2.006	1.48288	1.8976	66.16	-0.2308	0.0143	0.2451	863.2804	0.131788	-379.918422	-379.911286	-379.910342	-379.949377	27.811
C         -0.05820        1.56020        0.04990
C          0.05770        0.03630       -0.00740
N          0.80980       -0.39820       -1.20020
C          1.74160       -1.20120       -0.84210
N          2.54350       -1.89620       -1.71320
C          1.86960       -1.39720        0.64470
O          2.14960       -0.14480        1.29980
C          0.78670       -0.57330        1.19200
H          0.93220        2.00390        0.18020
H         -0.48990        1.93760       -0.88020
H         -0.69550        1.87390        0.88320
H         -0.95170       -0.39740       -0.05920
H          2.48300       -1.58530       -2.67280
H          3.48340       -2.09140       -1.40350
H          2.28920       -2.28810        1.10310
H          0.28640       -0.78830        2.13240
