17
gdb 3490	3.81637	3.55354	3.55294	0.0041	65.65	-0.2602	0.0952	0.3554	562.2173	0.153086	-272.599303	-272.594418	-272.593474	-272.627483	21.364
C         -0.02500        1.58960        0.01080
C          1.48140        1.83310       -0.00380
C          2.12050        0.67600        0.74340
C          0.98560       -0.24040        1.19200
C          0.03580        0.04250        0.00250
C          0.96100       -0.22900       -1.20860
C          2.10490        0.68330       -0.77490
H         -0.51440        1.98670        0.90670
H         -0.53340        1.99570       -0.87050
H          1.91680        2.82360       -0.00350
H          3.03690        0.79560        1.30610
H          1.28340       -1.29290        1.25160
H          0.55320        0.05250        2.15490
H         -0.92000       -0.48050        0.00980
H          1.25720       -1.28080       -1.28490
H          0.50890        0.07350       -2.15950
H          3.00950        0.80810       -1.35510
