19
gdb 3317	5.83126	1.78524	1.61462	0.2476	70.65	-0.249	0.0901	0.3391	851.187	0.172426	-273.75898	-273.751839	-273.750894	-273.789971	27.427
C          0.02120        1.54610        0.07820
C         -0.14000        0.02780       -0.05100
C          0.67680       -0.56160       -1.19780
C          2.24620       -0.59050       -1.10290
C          2.21710       -2.10080       -1.36830
C          1.42110       -2.79280       -0.30000
C          0.68730       -2.08500       -1.40740
H          1.06630        1.82000        0.25960
H         -0.29870        2.05740       -0.83690
H         -0.57450        1.94280        0.90630
H          0.14600       -0.45200        0.89330
H         -1.19900       -0.21780       -0.20750
H          0.38750       -0.06460       -2.13080
H          2.72700       -0.01050       -1.89350
H          2.68110       -0.29220       -0.14180
H          2.90690       -2.63880       -2.00720
H          1.40100       -3.87650       -0.36080
H          1.41490       -2.40900        0.71760
H          0.01800       -2.62350       -2.06860
