14
gdb 3735	6.89105	2.07477	1.81204	0.6337	59.12	-0.2569	0.0007	0.2576	717.6135	0.115917	-320.768781	-320.762423	-320.761479	-320.799831	22.306
C         -0.02670        1.53860        0.01020
C         -0.02500        0.00990        0.00270
N         -1.37130       -0.54440        0.01250
N         -2.03020       -0.77500        1.14230
C         -3.22840       -1.19290        0.72660
C         -3.24020       -1.18930       -0.67360
N         -2.04900       -0.76920       -1.10720
H          1.00150        1.91220        0.00240
H         -0.54350        1.92690       -0.87150
H         -0.52690        1.91830        0.90500
H          0.46530       -0.37890       -0.89210
H          0.48220       -0.38740        0.88420
H         -3.99440       -1.47360        1.43150
H         -4.01790       -1.46640       -1.36700
