21
gdb 20122	3.40142	1.51033	1.13872	0.8995	78.98	-0.2296	0.0851	0.3146	1108.337	0.188304	-329.083666	-329.075087	-329.074143	-329.116712	32.51
C         -0.07910        1.51930        0.23830
C          0.00940        0.02080       -0.06330
C          0.77040       -0.24090       -1.34780
C          0.49680       -1.45930       -2.19250
C          0.08850       -0.09210       -2.68330
N          0.69240       -0.64550        1.04940
C         -0.11440       -0.96500        2.22070
C          0.35370       -2.03950        1.30140
H          0.92360        1.93970        0.36380
H         -0.57760        2.04730       -0.57940
H         -0.63970        1.70300        1.16010
H         -1.01860       -0.37590       -0.18380
H          1.80740        0.08050       -1.29890
H          1.33520       -1.95300       -2.67110
H         -0.29240       -2.13430       -1.87850
H         -0.97150        0.14270       -2.69000
H          0.64380        0.35500       -3.50020
H          0.36130       -0.80940        3.18490
H         -1.17620       -0.72190        2.19310
H         -0.39860       -2.50740        0.66880
H          1.17980       -2.68850        1.57820
