17
gdb 13401	5.84004	1.03096	0.94047	1.7098	64.72	-0.2498	0.018	0.2678	1206.6723	0.143231	-401.005453	-400.997408	-400.996464	-401.038873	28.296
O          0.07740        1.42660        0.07430
C          0.05960        0.00640        0.06030
C         -1.36150       -0.55820        0.00070
C         -1.40490       -2.08810        0.04790
C         -2.84280       -2.67830        0.02250
O         -2.84570       -3.56570       -1.12330
C         -1.61510       -3.44180       -1.67220
N         -0.75110       -2.68580       -1.13870
H         -0.21580        1.73090       -0.79020
H          0.65670       -0.40190       -0.76560
H          0.54260       -0.30410        0.99400
H         -1.93880       -0.14990        0.83950
H         -1.85310       -0.22070       -0.92260
H         -0.86230       -2.42780        0.93920
H         -3.09510       -3.26610        0.90820
H         -3.61440       -1.91780       -0.13450
H         -1.46660       -4.03440       -2.56850
