14
gdb 3114	5.82002	2.1466	1.85763	4.3164	62.83	-0.27	0.0185	0.2885	698.6424	0.115034	-287.430903	-287.424845	-287.423901	-287.460649	22.927
N          0.07110       -1.16540       -0.05440
C          0.04510       -0.00800       -0.02150
C          0.00600        1.41500        0.03980
C          0.28090        2.28470       -1.16830
C          1.17500        2.42940        0.02060
C          0.49030        3.25320        1.11660
C         -0.69930        2.23840        1.13430
H          0.70740        1.76490       -2.01890
H         -0.43330        3.06430       -1.42320
H          2.23250        2.20410       -0.03590
H          1.04130        3.25370        2.05840
H          0.25320        4.28670        0.84760
H         -1.68780        2.61940        0.86340
H         -0.77350        1.70060        2.08010
