20
gdb 10881	2.69432	1.87977	1.66192	1.1881	75.54	-0.251	0.0808	0.3318	938.4747	0.176417	-348.959951	-348.951556	-348.950612	-348.992111	32.5
C         -0.11080        1.63980        0.17020
C          0.01580        0.12350        0.12060
C          1.15340       -0.59910       -0.67920
C          2.15150       -0.16550        0.43340
C          0.86150       -0.66200        1.16050
O          0.57450       -0.65660        2.51510
C          0.87940       -1.88350        0.17230
C         -0.32770       -2.78460       -0.04040
H          0.83940        2.16130        0.30420
H         -0.56470        2.01300       -0.75450
H         -0.76610        1.93310        0.99750
H         -0.97600       -0.30270       -0.04510
H          1.32600       -0.55920       -1.75310
H          3.04370       -0.78890        0.54640
H          2.40050        0.89230        0.50750
H          1.25280       -1.16430        2.97360
H          1.77830       -2.50200        0.28860
H         -1.26300       -2.24400       -0.20080
H         -0.17040       -3.43560       -0.90750
H         -0.47120       -3.43250        0.83170
