22
gdb 9772	3.63689	1.42497	1.35482	1.3079	77.22	-0.2581	0.0681	0.3261	1063.676	0.200803	-350.229944	-350.221092	-350.220148	-350.263489	33.873
C         -0.01890        1.56970       -0.09770
C          0.02540        0.04080       -0.00460
C          0.68770       -0.50610        1.26890
O          2.04980       -0.05370        1.35960
C         -0.05380       -0.17380        2.58240
C          0.50150       -1.20400        3.57520
C          0.54610       -2.50640        2.74850
C          0.77610       -2.05300        1.28070
H          0.98930        1.99850       -0.08900
H         -0.49410        1.88960       -1.02970
H         -0.58450        2.01270        0.72900
H         -0.99420       -0.35990       -0.06550
H          0.57250       -0.35800       -0.86750
H          2.03550        0.89340        1.53280
H          0.09500        0.86450        2.89840
H         -1.13280       -0.32100        2.44330
H          1.51380       -0.90960        3.86840
H         -0.09740       -1.29480        4.48570
H          1.31780       -3.19610        3.10010
H         -0.41030       -3.03380        2.83330
H          0.02720       -2.48450        0.61030
H          1.75840       -2.34320        0.90090
