11
gdb 1829	6.7284	2.29425	1.7296	2.2858	49.18	-0.2757	-0.0088	0.2669	656.478	0.080572	-376.633716	-376.628022	-376.627078	-376.663421	20.546
N         -0.11780        1.29960        0.00780
C          0.00100        0.04010        0.00050
C         -1.16630       -0.93200        0.00250
O         -0.57560       -2.23840       -0.00770
C          0.78010       -2.14390       -0.01570
O          1.52970       -3.07330       -0.02400
N          1.10950       -0.79010       -0.01020
H          0.78430        1.77630        0.00510
H         -1.78340       -0.81650        0.89740
H         -1.79390       -0.80750       -0.88400
H          2.07140       -0.49290       -0.01390
