14
gdb 5277	4.91198	1.65838	1.24928	2.1726	67.32	-0.24	-0.0497	0.1903	917.6051	0.108528	-378.79148	-378.784294	-378.78335	-378.823574	25.585
C         -0.01150        1.48670        0.00830
C         -0.00050       -0.02300        0.00210
O          1.02080       -0.68880       -0.00890
C         -1.30520       -0.70220        0.01020
N         -2.51620       -0.16570        0.02240
C         -3.38030       -1.22100        0.02540
C         -2.68670       -2.41530        0.01500
N         -1.37000       -2.06650        0.00560
H          1.01410        1.85650        0.00030
H         -0.55940        1.86310       -0.86100
H         -0.54280        1.85580        0.89100
H         -4.45040       -1.07890        0.03480
H         -3.01200       -3.44260        0.01370
H         -0.55450       -2.65910       -0.00350
