20
gdb 6537	3.26875	1.51498	1.26467	2.38	71.31	-0.2286	0.0578	0.2864	1056.7282	0.173923	-386.130818	-386.121307	-386.120363	-386.16425	36.018
C         -0.04610        1.56220       -0.26720
C         -0.01190        0.09990        0.19390
C         -1.36360       -0.57640        0.09780
O         -2.34160        0.00830        0.93970
C         -1.86660       -1.16720       -1.20940
C         -1.55680       -2.07160       -0.02280
C         -0.41120       -3.05120       -0.07630
O         -2.63950       -2.60720        0.68040
H          0.94230        2.02360       -0.18660
H         -0.36950        1.64090       -1.31100
H         -0.73540        2.14990        0.34760
H          0.71620       -0.45610       -0.40510
H          0.33080        0.04960        1.23480
H         -2.78600        0.70910        0.45210
H         -2.91670       -1.03300       -1.44980
H         -1.19570       -1.16590       -2.06320
H          0.41560       -2.68170       -0.68710
H         -0.03750       -3.26480        0.93020
H         -0.75930       -3.99310       -0.51240
H         -3.05550       -1.85840        1.13140
