16
gdb 6461	3.74368	1.48823	1.33236	3.0538	60.78	-0.277	0.0057	0.2826	955.8903	0.129275	-420.909234	-420.901275	-420.900331	-420.94155	29.483
C         -0.33830        1.70800       -0.15770
C         -0.07500        0.21610       -0.14950
C         -1.31140       -0.62360        0.15710
O         -1.84250       -0.32030        1.42920
C          0.85630       -0.34760       -1.24270
C          1.79670       -0.64670       -0.07680
O          2.86600       -1.13600        0.09130
O          0.95760       -0.12260        0.87410
H          0.59590        2.26850       -0.24640
H         -0.98330        1.96930       -1.00310
H         -0.84580        2.00380        0.76320
H         -2.09680       -0.40810       -0.57560
H         -1.05290       -1.69040        0.06960
H         -1.14270       -0.49510        2.07020
H          0.50390       -1.23330       -1.77580
H          1.24820        0.37910       -1.95630
