15
gdb 10154	3.04813	1.28253	0.95282	4.032	63.32	-0.2816	-0.0587	0.2229	1188.611	0.115433	-399.802412	-399.793237	-399.792293	-399.837863	30.074
C          0.06680        1.54420       -0.00760
C          0.18250        0.03480        0.08790
O          0.46050       -0.47060       -1.22020
C          0.55770       -1.86350       -1.30230
C          0.63760       -2.20670       -2.80790
O          0.36790       -3.28300       -3.25350
C          1.75140       -2.39340       -0.60890
N          2.69560       -2.78330       -0.06860
H          1.00110        1.97860       -0.37310
H         -0.73840        1.82860       -0.69050
H         -0.14860        1.96480        0.97860
H          0.98870       -0.25670        0.77540
H         -0.75260       -0.41210        0.45930
H         -0.32800       -2.37300       -0.89070
H          0.95760       -1.34070       -3.42210
