17
gdb 11853	6.03464	1.24476	1.14247	2.1516	72.69	-0.2384	0.0323	0.2707	1085.1608	0.141144	-363.842109	-363.834149	-363.833205	-363.874747	29.138
C         -0.24010        1.45700        0.24210
N         -0.29970        0.00230        0.27960
C          0.61070       -0.62990        0.85500
C          0.91190       -2.09300        1.10840
C          2.14270       -1.53510        1.81530
C          2.78860       -1.88260        3.10840
C          3.57070       -1.94830        1.79830
O          1.75190       -0.17550        1.51370
H          0.63740        1.88360        0.74210
H         -0.24520        1.78820       -0.80220
H         -1.14350        1.86400        0.70970
H          0.18630       -2.60660        1.74240
H          1.10130       -2.68370        0.20990
H          3.01860       -1.06560        3.78340
H          2.50670       -2.81060        3.59500
H          3.82330       -2.92120        1.38960
H          4.30920       -1.17410        1.62150
