17
gdb 18576	3.54861	2.16909	1.71616	1.7051	66.91	-0.2422	0.02	0.2622	808.8807	0.144268	-363.870106	-363.863319	-363.862375	-363.90132	26.046
C          0.24160        1.57480        0.02190
C          0.06020        0.06380        0.03570
C          0.89970       -0.79000       -0.97440
C          1.44520       -1.64760        0.20380
N          2.86840       -1.43150        0.50190
C          2.89320       -0.56590        1.42780
O          1.73400       -0.06970        1.93740
C          0.67670       -0.74200        1.21320
H          1.29160        1.84950        0.15560
H         -0.09880        1.99090       -0.93210
H         -0.33160        2.05360        0.82270
H         -1.00480       -0.17930       -0.04310
H          0.31550       -1.33330       -1.72060
H          1.69180       -0.23550       -1.48370
H          1.21320       -2.71360        0.17020
H          3.78770       -0.15850        1.88620
H         -0.01160       -1.16470        1.94740
