12
gdb 7022	9.23079	0.93407	0.85265	3.288	58.38	-0.2979	-0.0456	0.2523	1225.7189	0.082215	-414.697873	-414.689812	-414.688867	-414.731679	26.476
N         -0.29930        1.33630        0.01390
C         -0.04540        0.10790        0.00330
O         -1.11950       -0.76170        0.00920
C         -0.86020       -2.10130       -0.00210
O          0.22610       -2.59910       -0.01660
C         -2.19470       -2.83750        0.00650
C         -2.04890       -4.28740       -0.00110
N         -1.96550       -5.43820       -0.00680
H          0.56710        1.87270        0.00820
H          0.91460       -0.40720       -0.01010
H         -2.76230       -2.51780        0.88760
H         -2.77730       -2.51040       -0.86210
