14
gdb 10010	3.33821	1.48257	1.03315	4.7906	71.05	-0.243	-0.0457	0.1973	1075.2866	0.104601	-378.704613	-378.695796	-378.694851	-378.738857	30.044
C          0.01040        1.59680        0.11420
N          0.04990        0.15330        0.10110
C         -1.01880       -0.52110        0.00040
N         -1.01300       -1.93010       -0.01530
C          0.05540       -2.80740        0.06750
O          1.21990       -2.53360        0.17220
C         -2.36020        0.00680       -0.11030
C         -3.48090        0.43510       -0.20280
H          0.62890        1.97210       -0.70930
H         -0.99360        2.03410        0.03190
H          0.47670        1.95190        1.04050
H         -1.92280       -2.35720       -0.09940
H         -0.32380       -3.84990        0.02220
H         -4.46670        0.82430       -0.28420
