17
gdb 18395	3.0654	2.42604	1.56031	2.3826	70.54	-0.2388	0.0095	0.2482	834.098	0.144779	-363.826804	-363.820098	-363.819154	-363.85775	26.188
C          0.27670        1.27070       -0.50830
O          0.54170        2.26410        0.45840
C          1.67990        2.05370        1.25330
C          1.48800        1.08320        2.40360
N          0.20260        1.11200        3.10240
C          0.60670       -0.11550        2.35940
C         -0.19660       -0.57460        1.19870
C         -0.32940       -0.01190       -0.00210
H         -0.42260        1.73140       -1.21580
H          1.19590        1.04430       -1.08130
H          2.53290        1.71590        0.63880
H          1.94080        3.03480        1.66860
H          2.39240        0.98200        3.00680
H          0.33710        0.96890        4.10050
H          0.93720       -0.94430        2.98460
H         -0.72480       -1.51050        1.37140
H         -0.94880       -0.52440       -0.73670
