17
gdb 3444	4.42189	2.70728	2.02436	1.8105	62.96	-0.2549	0.0908	0.3457	695.0225	0.14981	-309.721434	-309.715012	-309.714068	-309.75144	24.921
C          0.02100        1.55930        0.03430
C          0.03130        0.02960        0.01310
C          0.78600       -0.57740       -1.20080
C          1.32810       -1.94860       -0.73070
C          1.50390       -1.77020        0.76450
O          2.16410       -0.54590        1.12400
C          0.73050       -0.60500        1.20470
H          1.04350        1.94410        0.10320
H         -0.43430        1.96430       -0.87540
H         -0.54410        1.94480        0.88960
H         -1.00540       -0.33720        0.01900
H          0.14770       -0.65840       -2.08420
H          1.62290        0.07560       -1.46170
H          0.60030       -2.75120       -0.90500
H          2.25520       -2.23240       -1.23870
H          1.71590       -2.61790        1.41180
H          0.31870       -0.51100        2.20750
