14
gdb 3713	6.9613	1.94664	1.66785	3.0629	59.36	-0.2518	-0.0069	0.2449	754.7058	0.114351	-324.581906	-324.575436	-324.574491	-324.612826	23.049
C          0.02220        1.55740        0.18380
C         -0.03440        0.04520       -0.09480
C         -1.42680       -0.48710       -0.15220
C         -2.17940       -1.05380       -1.13580
C         -3.42250       -1.31140       -0.50000
N         -3.42670       -0.93580        0.75440
O         -2.15470       -0.40990        0.97860
H          1.06040        1.89730        0.23400
H         -0.48520        2.11990       -0.60550
H         -0.46370        1.79450        1.13350
H          0.45650       -0.18560       -1.04490
H          0.51820       -0.49030        0.68680
H         -1.89140       -1.25720       -2.15360
H         -4.31500       -1.75930       -0.91420
