19
gdb 6388	3.42843	1.18925	1.02786	3.8986	69.51	-0.2354	0.0418	0.2773	1209.7717	0.163321	-402.237581	-402.22746	-402.226516	-402.274425	34.722
C          0.05560        1.66790        0.00330
C          0.00270        0.13390        0.02740
C          0.69080       -0.45390        1.25750
O         -0.07070       -0.06910        2.39950
N         -1.36630       -0.36150       -0.01480
C         -2.00240       -0.66920       -1.17960
C         -3.45160       -1.10980       -1.03010
O         -1.45760       -0.59630       -2.26850
H          1.09310        2.01770       -0.02610
H         -0.45720        2.04290       -0.88550
H         -0.42190        2.08630        0.89340
H          0.49650       -0.25360       -0.86830
H          0.73210       -1.54880        1.16520
H          1.72110       -0.07350        1.31930
H          0.30250       -0.49620        3.17530
H         -1.85890       -0.39010        0.86330
H         -3.75570       -1.27500        0.00680
H         -4.09990       -0.34570       -1.46950
H         -3.59880       -2.02950       -1.60090
