14
gdb 21143	5.03941	1.68719	1.27398	2.7609	70.87	-0.2322	-0.0735	0.1587	912.5971	0.107177	-378.698244	-378.691111	-378.690167	-378.729974	25.673
C          0.13290        1.43000        0.07320
N          0.14400       -0.02340        0.09470
C          0.39940       -0.64880       -0.97780
O          0.66500        0.04800       -2.15780
N          0.95290       -0.57830       -3.37030
C          0.96700       -1.86430       -3.36950
C          0.70990       -2.69910       -2.22030
C          0.43290       -2.09480       -1.05360
H          1.10370        1.84250       -0.23260
H         -0.61330        1.82350       -0.63010
H         -0.10280        1.79810        1.07410
H          1.19620       -2.29860       -4.33800
H          0.74560       -3.77710       -2.32290
H          0.22550       -2.62640       -0.13330
