16
gdb 10105	3.03632	1.46028	1.04231	2.8208	66.13	-0.2462	-0.0474	0.1988	1092.7176	0.128875	-379.929753	-379.920847	-379.919903	-379.963699	30.481
C          0.20290        1.30980        0.23970
N          0.07710       -0.10610       -0.10280
C         -1.30070       -0.59160       -0.10740
C         -1.34860       -2.07190       -0.52990
C         -0.94940       -2.30940       -1.96740
O         -0.53340       -1.45950       -2.71590
C         -1.89390       -0.45890        1.23510
N         -2.38220       -0.36700        2.27800
H          1.25060        1.60370        0.13810
H         -0.40760        1.97840       -0.39120
H         -0.09070        1.46690        1.28180
H          0.42920       -0.25120       -1.04370
H         -1.95100       -0.01790       -0.79470
H         -0.68260       -2.66490        0.11070
H         -2.35450       -2.48620       -0.38740
H         -1.06670       -3.36120       -2.30780
