24
gdb 13135	3.43172	1.10879	0.93649	0.1266	85.55	-0.2789	0.0848	0.3637	1373.588	0.223309	-314.273274	-314.263744	-314.2628	-314.307538	35.597
C         -0.30380        1.55970       -0.14810
C         -0.01410        0.05970       -0.04650
C          0.61140       -0.52080       -1.32130
C          0.88550       -2.02280       -1.22620
C         -0.38380       -2.91780       -1.37460
C          0.01170       -3.19530       -2.84840
C          1.44930       -2.70570       -2.52160
C          2.21520       -1.90060       -3.56160
H          0.61230        2.12770       -0.34570
H         -1.00480        1.77350       -0.96280
H         -0.74190        1.94710        0.77730
H          0.65990       -0.12770        0.80010
H         -0.94320       -0.47720        0.18350
H         -0.05010       -0.31140       -2.17370
H          1.55000        0.01050       -1.53010
H          1.48060       -2.21260       -0.32560
H         -0.33070       -3.81770       -0.75560
H         -1.35120       -2.43880       -1.19850
H         -0.10250       -4.21570       -3.22380
H         -0.49670       -2.51810       -3.54260
H          2.05760       -3.56600       -2.21820
H          1.64510       -1.03040       -3.90280
H          3.17260       -1.53920       -3.16910
H          2.43280       -2.51670       -4.44160
