18
gdb 7105	7.06993	0.86195	0.77931	4.4721	71.14	-0.2504	-0.0187	0.2317	1446.0517	0.153432	-381.163789	-381.154674	-381.153729	-381.198356	31.732
C          0.15500        1.52620       -0.02880
C          0.20360       -0.00350       -0.01630
C         -1.18960       -0.62990        0.03300
C         -1.18880       -2.14430        0.04590
N         -0.11960       -2.82230        0.01480
N         -2.50410       -2.67810        0.09560
C         -2.86150       -4.00200        0.11840
O         -2.10130       -4.94390        0.09980
H          1.16310        1.94980       -0.06410
H         -0.39320        1.90390       -0.89960
H         -0.33820        1.92020        0.86730
H          0.72870       -0.37600       -0.90110
H          0.78310       -0.35990        0.84100
H         -1.73200       -0.27580        0.92280
H         -1.78680       -0.29120       -0.82740
H         -0.32070       -3.82240        0.03000
H         -3.26370       -2.01360        0.11650
H         -3.96190       -4.12230        0.15730
