17
gdb 17831	4.26103	1.65096	1.4549	1.8575	69.59	-0.2377	-0.0244	0.2133	915.8624	0.141852	-363.830823	-363.823213	-363.822269	-363.863201	28.238
C          0.03940        1.40730        0.73820
C          0.01310        0.26180       -0.25940
O          0.98480       -0.01270       -0.93380
C         -1.29360       -0.47070       -0.33030
C         -1.93810       -0.95650       -1.58750
C         -0.94900       -1.46930       -2.63210
C         -0.44970       -2.43460       -1.52970
N         -1.48540       -1.93580       -0.54280
H          0.99500        1.92840        0.67520
H         -0.78140        2.10730        0.54460
H         -0.10470        1.02290        1.75490
H         -2.00940       -0.13100        0.41440
H         -2.99070       -0.74840       -1.75970
H         -1.44860       -1.97930       -3.45790
H         -0.23160       -0.74820       -3.02450
H         -0.66650       -3.48490       -1.73380
H          0.58150       -2.32200       -1.20010
