17
gdb 15869	2.53081	2.07747	1.26548	5.0244	69.81	-0.2374	0.0169	0.2544	971.9301	0.142554	-360.020269	-360.011922	-360.010978	-360.053011	30.285
C          0.02480        1.52090        0.04030
N         -0.01180        0.07770        0.12940
C         -1.27630       -0.60480        0.45860
C         -0.45900       -1.66200        1.26670
N         -0.07600       -2.89890        0.62790
C          0.67150       -0.57790        1.25800
C          2.05250       -0.98620        1.00610
N          3.14810       -1.29120        0.80140
H          1.05350        1.85470       -0.12740
H         -0.57890        1.85010       -0.81100
H         -0.35970        2.01910        0.95000
H         -1.94180       -0.00750        1.10440
H         -1.84270       -0.96400       -0.40760
H         -0.84990       -1.88550        2.26040
H         -0.86950       -3.52850        0.56820
H          0.25050       -2.72960       -0.31910
H          0.64750        0.01550        2.18780
