15
gdb 20442	6.09242	1.46052	1.27879	3.8451	67.68	-0.2267	0.0235	0.2502	933.8267	0.122675	-358.836224	-358.829698	-358.828754	-358.867285	24.552
C         -0.00940        1.52450       -0.00640
N          1.23900        0.77190        0.16890
C         -0.02580        0.03030        0.01340
C         -0.45350       -0.73500        1.20120
C         -1.51730       -1.58460        1.44560
C         -1.36230       -1.96680        2.79530
N         -0.29020       -1.40830        3.35270
N          0.23850       -0.66370        2.36440
H         -0.34100        2.06950        0.87230
H         -0.19430        2.02240       -0.95450
H          1.77590        0.75230       -0.69270
H         -0.22050       -0.45630       -0.93910
H         -2.28910       -1.87720        0.75220
H         -1.98610       -2.62680        3.38040
H          1.09990       -0.15810        2.49560
