16
gdb 14612	12.91478	0.59782	0.58541	2.3504	67.79	-0.2611	-0.0352	0.2259	1758.351	0.128978	-379.925322	-379.916224	-379.91528	-379.960717	29.937
O         -0.56090        0.71220        0.75640
C          0.08940        0.98010       -0.21930
C          1.35640        1.80700       -0.21540
C          1.26790        2.99470       -1.18040
N          2.56900        3.64300       -1.30810
C          2.53180        4.80400       -2.19070
C          3.84330        5.45380       -2.25980
N          4.87040        5.98010       -2.29700
H         -0.21510        0.61600       -1.22910
H          1.55650        2.13370        0.80960
H          2.18460        1.16390       -0.54320
H          0.97180        2.63730       -2.17610
H          0.47290        3.68650       -0.84610
H          2.90570        3.92730       -0.39320
H          2.25780        4.47090       -3.19970
H          1.78750        5.56860       -1.90170
