15
gdb 18935	3.72929	2.53033	2.02703	2.8702	58.73	-0.2305	0.0537	0.2842	690.0717	0.121834	-399.727464	-399.722015	-399.721071	-399.75674	23.092
O          0.04680        1.36270        0.03710
C          0.03570       -0.03250       -0.03200
C         -1.35280       -0.64110       -0.36420
N         -1.62350        0.14030       -1.62760
C         -0.59230       -0.76010       -2.22080
C         -0.84250       -1.89280       -1.21360
O          0.55190       -2.09650       -0.96020
C          0.68330       -0.67890       -1.28660
H         -0.58850        1.64760       -0.64020
H          0.48870       -0.43830        0.87370
H         -2.12790       -0.66710        0.39860
H         -2.53270       -0.12220       -2.00340
H         -0.48690       -0.84400       -3.30040
H         -1.44730       -2.79110       -1.33540
H          1.67600       -0.37420       -1.61030
