17
gdb 13952	4.8899	1.31215	1.21792	4.0854	72.33	-0.2693	0.0329	0.3021	1019.7551	0.14315	-326.716165	-326.708746	-326.707802	-326.748248	27.869
N         -0.10360       -1.12690        0.34490
C         -0.08260        0.00890        0.13330
C         -0.02960        1.44860       -0.14100
C          1.38260        1.98530       -0.12730
C          2.07750        2.40960        1.13560
C          1.87630        3.42500        0.04130
C          2.91980        3.21510       -1.06270
C          2.42000        1.74170       -1.23360
H         -0.50390        1.62800       -1.11410
H         -0.64130        1.96540        0.60780
H          1.43490        2.52750        2.00290
H          3.07320        2.03840        1.36850
H          1.30110        4.32870        0.20670
H          2.73510        3.81930       -1.95320
H          3.96300        3.34970       -0.76010
H          3.14130        0.94130       -1.04410
H          1.96470        1.57350       -2.21290
