18
gdb 13119	4.04898	1.2052	1.02543	2.2674	69.47	-0.2379	-0.0218	0.2161	1167.4368	0.152015	-384.934371	-384.92561	-384.924665	-384.969086	30.409
C         -0.89460        0.68570       -0.13880
O          0.03250        0.49900       -1.18370
C          1.22620       -0.14930       -0.79450
C          1.06520       -1.65630       -0.59050
C          0.73200       -2.54880       -1.82650
C          1.94730       -3.47420       -1.51080
C          2.37190       -2.46030       -0.43630
O          3.36560       -2.29370        0.21010
H         -1.29640       -0.26320        0.24700
H         -0.45000        1.23860        0.70340
H         -1.72330        1.26980       -0.54640
H          1.93900        0.03500       -1.60580
H          1.64060        0.30160        0.12080
H          0.40020       -1.85960        0.25740
H         -0.24610       -3.03010       -1.81260
H          0.83970       -2.00680       -2.76860
H          1.67490       -4.44110       -1.07500
H          2.67690       -3.65190       -2.30540
