18
gdb 8515	4.51218	1.80061	1.60407	1.7106	71.56	-0.2217	0.0849	0.3066	875.4058	0.152708	-347.750898	-347.743503	-347.742559	-347.781868	29.298
C         -0.07570        1.49500        0.04170
C          0.02960        0.00210       -0.03290
C          0.93050       -0.84510       -0.93410
C          0.07910       -2.05330       -0.45370
C          0.00970       -3.37040       -1.15970
O          0.44260       -2.15320        0.96320
C         -0.28010       -0.93940        1.14730
C         -1.08710       -1.04330       -0.09980
H          0.86120        1.94010        0.39650
H         -0.30310        1.93260       -0.93730
H         -0.86950        1.80250        0.73170
H          0.75770       -0.62160       -1.99120
H          2.00430       -0.89540       -0.72130
H          0.99190       -3.85570       -1.14480
H         -0.70850       -4.03560       -0.67200
H         -0.29010       -3.23290       -2.20300
H         -0.52210       -0.61300        2.15080
H         -2.14450       -0.99280       -0.32350
