15
gdb 4349	3.69162	1.96989	1.29587	1.965	72.54	-0.2188	-0.0322	0.1866	911.6772	0.120805	-358.908156	-358.900909	-358.899965	-358.939632	27.229
C         -0.00030        1.48860        0.04610
C         -0.00440       -0.01440       -0.00510
C         -0.13490       -0.71180       -1.20420
N         -0.14340       -2.05030       -1.24760
C         -0.01400       -2.69130       -0.09900
C          0.12160       -1.99760        1.12250
N          0.30860       -2.66400        2.31380
N          0.11850       -0.66470        1.16070
H          0.93890        1.85390        0.47420
H         -0.12290        1.92330       -0.94880
H         -0.80790        1.85200        0.68970
H         -0.23890       -0.18640       -2.14880
H         -0.01500       -3.77930       -0.12400
H         -0.03800       -3.60800        2.37440
H          0.14830       -2.10070        3.13540
