22
gdb 7838	3.96534	1.06044	0.93379	1.3853	78.67	-0.251	0.0724	0.3233	1338.3669	0.1984	-350.197427	-350.18757	-350.186625	-350.232519	36.111
C          0.10190        1.54130        0.14300
C          0.01360        0.01400        0.16820
O          0.45730       -0.50430        1.41910
C         -1.39090       -0.48960       -0.20330
C         -1.48650       -1.99900       -0.28290
C         -1.83370       -2.83560        0.92350
C         -2.80000       -2.75250       -0.23360
C         -4.14100       -2.06530       -0.08830
H          1.10600        1.86660        0.42790
H         -0.12480        1.93920       -0.85170
H         -0.61290        1.98350        0.84890
H          0.73080       -0.39310       -0.55670
H         -0.14920       -0.18610        2.09690
H         -2.10690       -0.09470        0.53070
H         -1.67000       -0.04360       -1.16810
H         -0.74100       -2.43410       -0.94580
H         -1.28900       -3.75640        1.10050
H         -2.10390       -2.30520        1.83210
H         -2.83500       -3.63250       -0.87180
H         -4.09410       -1.21680        0.60040
H         -4.50910       -1.69110       -1.05070
H         -4.89120       -2.76050        0.30480
