12
gdb 21412	3.34926	2.4717	1.42217	5.3512	61.06	-0.2313	-0.0378	0.1935	785.6041	0.086834	-410.863811	-410.857463	-410.856519	-410.894448	23.781
N         -0.06460        1.28260        0.35660
C          0.00070        0.06000        0.01950
N          1.15470       -0.65610       -0.31170
C          1.15810       -1.98410       -0.66980
N          0.11070       -2.71700       -0.74160
N         -1.06320       -2.07910       -0.42910
C         -1.26740       -0.76770       -0.05140
O         -2.36730       -0.33460        0.19720
H          0.85610        1.72720        0.36600
H          2.03510       -0.16130       -0.28400
H          2.11960       -2.42380       -0.90360
H         -1.88760       -2.65960       -0.48660
