20
gdb 18522	5.20766	1.15581	1.08211	0.9812	75.69	-0.2414	0.087	0.3284	1183.0443	0.176916	-348.970465	-348.962266	-348.961322	-349.003498	30.632
C          0.04880        1.49890       -0.02170
C         -0.11360       -0.00100       -0.20280
O          0.94590       -0.47370       -1.01220
C          0.90740       -1.85880       -1.24130
C         -0.12590       -2.42710       -2.28450
C          1.05490       -2.97840       -3.09020
C          1.95940       -1.85220       -3.49440
C          2.05580       -2.38330       -2.09030
H          1.00780        1.72540        0.45280
H          0.01870        2.00720       -0.98970
H         -0.75380        1.89810        0.60570
H         -0.09930       -0.51270        0.77500
H         -1.08620       -0.22890       -0.66890
H          0.82520       -2.39820       -0.28580
H         -0.77600       -3.19390       -1.85740
H         -0.74140       -1.68150       -2.79860
H          1.08780       -3.94740       -3.57180
H          2.78910       -2.12390       -4.13900
H          1.55700       -0.85900       -3.67300
H          2.97430       -2.80380       -1.69990
