14
gdb 13329	5.99853	1.26863	1.15992	3.3451	60.36	-0.2714	0.0063	0.2777	1003.0871	0.108115	-415.867947	-415.860812	-415.859868	-415.900357	24.82
N         -0.06510        1.32070       -0.03120
C         -0.02440        0.06380        0.01680
O         -1.17560       -0.64700       -0.10010
C         -1.05070       -2.04630       -0.14230
C         -2.45320       -2.68270       -0.08410
N         -2.69960       -3.18390       -1.44420
C         -1.61510       -3.01250       -2.07000
O         -0.54690       -2.45780       -1.42260
H          0.86930        1.70570        0.09170
H          0.86460       -0.56410        0.15730
H         -0.33850       -2.38980        0.61380
H         -2.50110       -3.51020        0.63020
H         -3.19810       -1.93590        0.20040
H         -1.42390       -3.27740       -3.10310
