18
gdb 12980	2.68515	2.49431	1.55989	2.9691	71.51	-0.2335	-0.0068	0.2267	866.3336	0.154523	-347.837288	-347.829792	-347.828848	-347.868783	28.924
C         -0.21780        1.52940        0.05370
C          0.06560        0.04970        0.01170
C         -0.76110       -0.92970        0.84420
C          0.69700       -0.76980        1.13160
C          1.63460       -1.81500        0.52610
C          1.25900       -1.88090       -0.96890
C          0.57410       -0.53830       -1.27060
O          0.51220       -0.00750       -2.35310
H          0.68040        2.11050       -0.17880
H         -0.97830        1.79420       -0.68720
H         -0.57720        1.83540        1.04070
H         -1.46470       -0.46700        1.52800
H         -1.12320       -1.84720        0.39110
H          0.99130       -0.28080        2.05390
H          2.67170       -1.48100        0.63690
H          1.55160       -2.78420        1.02850
H          2.11170       -2.02010       -1.63580
H          0.55420       -2.69240       -1.18550
