8
gdb 725	6.64966	6.41692	3.26561	4.38	41.36	-0.2639	-0.0979	0.166	372.8252	0.050401	-296.265627	-296.261303	-296.260359	-296.293176	14.62
C         -0.02080        1.38540        0.01050
N          1.11660        2.06540        0.00310
N          2.25850        1.37880       -0.01210
N          2.27630        0.06460       -0.01980
N          1.15340       -0.65280       -0.01270
C         -0.00190       -0.00400        0.00240
H         -0.93960        1.96440        0.02280
H         -0.90480       -0.60780        0.00790
