18
gdb 12356	2.77712	2.1652	1.49093	3.5533	74.	-0.2331	-0.0471	0.1859	899.8809	0.155166	-347.849595	-347.842055	-347.841111	-347.881292	28.817
C         -0.20850        1.50570        0.07490
C          0.02840       -0.01450       -0.02300
C          0.80380       -0.42760       -1.28590
C          2.27300        0.01630       -1.24720
C          2.91770       -0.29910        0.07210
C          2.22340       -0.54830        1.19050
C          0.74650       -0.48590        1.24410
O          0.13540       -0.74450        2.26280
H          0.73230        2.06370        0.12720
H         -0.76580        1.86370       -0.79670
H         -0.78610        1.74020        0.97300
H         -0.94970       -0.50650       -0.01870
H          0.77640       -1.52060       -1.37290
H          0.30920       -0.02740       -2.17810
H          2.83710       -0.46240       -2.05640
H          2.36200        1.09670       -1.43570
H          4.00550       -0.31660        0.10140
H          2.71460       -0.79010        2.12810
