15
gdb 17440	2.77274	2.68183	1.90511	1.6788	59.52	-0.2412	0.0609	0.3021	739.5166	0.118911	-399.720714	-399.714011	-399.713067	-399.751097	26.683
O          0.08790        1.45460        0.04620
C          0.05730        0.05720       -0.05890
C         -1.25280       -0.71930       -0.05320
C         -0.70840       -1.75570       -0.96140
N         -1.76990       -0.84920       -1.46820
C         -0.76400       -0.13200       -2.32510
C          0.35450       -0.64900       -1.41140
O          1.67510       -0.77370       -1.77670
H         -0.65420        1.81760       -0.44710
H          0.73930       -0.33000        0.70320
H         -1.98720       -0.81300        0.73580
H         -0.75960       -2.83580       -0.95400
H         -0.76670       -0.60210       -3.31360
H         -0.89950        0.95160       -2.43760
H          1.72240       -1.13830       -2.66710
