13
gdb 541	10.28968	1.73795	1.57616	3.0286	48.93	-0.27	0.0147	0.2847	745.4967	0.107385	-323.61489	-323.607894	-323.60695	-323.646631	23.021
O         -0.05200        1.41180       -0.01920
C         -0.00470        0.00280        0.03740
C         -1.39690       -0.60750        0.01360
O         -1.98820       -0.21120       -1.22880
C         -3.31930       -0.38250       -1.35640
N         -3.88910       -0.09000       -2.44280
H         -0.54430        1.63680       -0.81740
H          0.58570       -0.42020       -0.79010
H          0.49070       -0.26700        0.97560
H         -1.34700       -1.70270        0.07910
H         -1.99120       -0.22220        0.85170
H         -3.79880       -0.77670       -0.44970
H         -4.88880       -0.26720       -2.37070
