18
gdb 19052	3.60046	2.1992	2.028	1.5362	70.01	-0.2344	0.0899	0.3243	774.5876	0.155851	-347.779499	-347.773066	-347.772122	-347.809689	26.372
C         -0.26170        1.55930        0.00400
C          0.03740        0.06270       -0.01700
O          0.70910       -0.32480       -1.23190
C          1.99870       -0.80700       -0.88770
C          2.89590        0.32190       -0.28690
C          2.42460       -0.12950        1.09810
C          1.90100       -1.44300        0.52490
C          0.93610       -0.45740        1.10000
H          0.65460        2.15340        0.04480
H         -0.82190        1.84630       -0.89050
H         -0.86960        1.80780        0.88110
H         -0.91760       -0.48270        0.01190
H          2.39020       -1.38250       -1.72540
H          3.95890        0.10140       -0.42530
H          2.68960        1.34100       -0.62710
H          2.95080        0.02690        2.03280
H          2.03980       -2.47160        0.82770
H          0.49310       -0.65590        2.06940
