10
gdb 21772	3.34892	2.53511	1.44287	5.5959	51.72	-0.2817	-0.079	0.2027	750.848	0.060965	-450.610187	-450.604025	-450.603081	-450.640858	22.133
O         -0.02640       -0.02200        0.16230
C         -0.00640        1.17550        0.06850
N         -1.14770        1.95640        0.01030
C         -1.10560        3.32460       -0.09620
N         -0.05300        4.04690       -0.15450
O          1.17460        3.35540       -0.10320
C          1.28720        1.99050        0.00230
O          2.36770        1.49060        0.04020
H         -2.03480        1.47080        0.05000
H         -2.05370        3.84880       -0.13500
