13
gdb 3765	7.49234	2.17377	1.72127	2.4901	56.13	-0.2756	-0.0171	0.2585	715.5256	0.102635	-336.816043	-336.809205	-336.808261	-336.84777	22.699
C         -0.04650        1.43720        0.02170
N         -0.00930       -0.01070        0.02890
N         -0.00600       -0.73350       -1.08280
N          0.03150       -1.98510       -0.70280
C          0.05000       -1.97540        0.65470
C          0.09300       -3.20260        1.49760
N          0.02480       -0.73670        1.14100
H          0.84180        1.83370        0.51820
H         -0.06950        1.75550       -1.01970
H         -0.93940        1.78800        0.54350
H          0.98570       -3.79390        1.27360
H          0.10310       -2.93220        2.55450
H         -0.77700       -3.83630        1.30170
