18
gdb 18022	4.29203	1.43688	1.29658	1.8312	67.1	-0.2395	0.0725	0.312	982.5719	0.154231	-384.89204	-384.884379	-384.883435	-384.924639	28.409
O         -0.04310        1.39710       -0.25490
C          0.04070       -0.01520       -0.11910
C         -1.37470       -0.53640        0.03240
C         -2.30640       -0.51700       -1.22320
C         -2.56080       -2.03010       -1.04240
O         -1.65620       -2.84760       -1.81640
C         -0.76350       -3.00610       -0.69020
C         -1.61030       -2.06890        0.18990
H          0.83460        1.73310       -0.45790
H          0.52100       -0.46490       -1.00170
H          0.64000       -0.29860        0.76300
H         -1.83680        0.00150        0.86540
H         -3.19060        0.11530       -1.11300
H         -1.81540       -0.27850       -2.16960
H         -3.58700       -2.40650       -1.06820
H         -0.74900       -4.04650       -0.33940
H          0.26430       -2.70350       -0.92410
H         -1.88660       -2.43320        1.17870
