16
gdb 13569	4.21995	1.39428	1.22579	2.5365	61.74	-0.2361	-0.0455	0.1907	984.0552	0.128922	-420.860838	-420.852879	-420.851935	-420.893433	29.584
O         -0.48910        1.24060        0.13290
C         -0.10860       -0.11230        0.01360
C          0.85960       -0.24920       -1.14730
O          1.23610        0.71540       -1.76880
C          0.55140       -0.65860        1.27790
C          1.50370        0.22140        2.07430
C          0.15520       -0.13820        2.64270
O         -0.85710        0.79310        2.82900
H          0.03300        1.71960       -0.53310
H         -0.99790       -0.72370       -0.21420
H          1.21940       -1.27160       -1.37580
H          0.78540       -1.71830        1.20740
H          2.40170       -0.22000        2.49280
H          1.61900        1.24230        1.72490
H          0.13720       -0.86830        3.44620
H         -0.89880        1.33970        2.03150
