15
gdb 10669	2.83959	2.10567	1.33427	2.7673	68.54	-0.2469	0.0245	0.2714	903.0607	0.117495	-362.657487	-362.649239	-362.648294	-362.689938	30.805
N          0.00010        1.25340        0.35840
C         -0.01220        0.00670       -0.17460
O          0.94830       -0.49510       -0.73170
C         -1.32240       -0.74730       -0.03450
C         -1.62490       -1.70720       -1.19110
C         -1.16460       -2.26590        0.10660
C         -2.41950       -0.10530        0.63110
C         -3.32490        0.45540        1.19380
H          0.84620        1.79320        0.29110
H         -0.81080        1.63770        0.81200
H         -2.66690       -1.81150       -1.46730
H         -0.91000       -1.67420       -2.00420
H         -0.13950       -2.61000        0.16880
H         -1.88180       -2.76410        0.74720
H         -4.13440        0.93400        1.68700
