16
gdb 3409	3.89601	2.81085	2.24346	2.2621	60.64	-0.2272	0.0674	0.2947	660.9111	0.136746	-325.718074	-325.711226	-325.710282	-325.74846	25.937
C         -0.14370        1.51580       -0.09580
N          0.09090        0.08760        0.08560
C          1.35860       -0.55500       -0.13900
C          2.55720        0.29380        0.32220
C          1.94320        0.28340        1.76650
O          1.63630        1.49600        2.41940
C          0.72930       -0.49350        1.24200
H          0.65550        2.17060        0.26580
H         -0.30900        1.70290       -1.16200
H         -1.05920        1.78170        0.44110
H          1.40570       -1.39220       -0.82700
H          3.51160       -0.23470        0.26810
H          2.66460        1.27280       -0.15290
H          2.54230       -0.36990        2.41620
H          2.45750        1.88320        2.73930
H          0.18970       -1.24930        1.80330
