16
gdb 17773	5.46235	1.15411	1.14529	1.9049	65.64	-0.2448	-0.0278	0.2169	1058.1168	0.129436	-383.669357	-383.662135	-383.661191	-383.70202	26.409
O         -0.50920        0.69750        0.71660
C          0.10900        0.96090       -0.28160
C          1.43900        1.68610       -0.30900
C          1.37330        2.92200       -1.20510
C          0.79660        4.29270       -0.73860
C          2.04930        4.55060        0.13270
C          2.48910        4.00600       -1.24750
O          1.50830        4.91820       -1.87850
H         -0.28070        0.68050       -1.28840
H          1.73070        1.90720        0.71940
H          2.18010        0.99270       -0.73320
H          1.02980        2.67120       -2.21300
H         -0.23930        4.58820       -0.57060
H          2.27610        5.60440        0.29500
H          2.21410        3.94390        1.02460
H          3.48420        3.95230       -1.69080
