20
gdb 13979	5.43885	1.0983	1.02932	1.7341	75.47	-0.2435	0.0856	0.3292	1229.4369	0.176296	-348.978221	-348.969802	-348.968857	-349.011546	31.265
C         -0.20400        1.57480       -0.07660
C         -0.09450        0.04870       -0.09520
C          0.90340       -0.46500       -1.14570
C          1.00140       -1.95810       -1.16900
C          1.64500       -2.90290       -0.13130
C          1.90150       -3.92940       -1.29010
C          1.23460       -2.93550       -2.24930
O         -0.08910       -2.69560       -1.75050
H          0.76190        2.04030        0.15040
H         -0.53520        1.95960       -1.04760
H         -0.92140        1.91310        0.67730
H          0.20660       -0.31140        0.89690
H         -1.07590       -0.39500       -0.29880
H          0.60190       -0.11920       -2.14190
H          1.89800       -0.04330       -0.94760
H          2.57290       -2.51110        0.29350
H          0.98200       -3.22520        0.67490
H          2.96530       -4.07840       -1.49040
H          1.40520       -4.89950       -1.21090
H          1.39050       -2.79660       -3.31390
