15
gdb 17703	5.15479	2.07544	2.01579	0.2384	63.1	-0.2179	0.0709	0.2887	708.1332	0.120361	-362.554619	-362.548958	-362.548014	-362.583925	23.793
O         -0.13020        1.42120        0.03190
C          0.02610        0.06220        0.03570
C         -1.01860       -1.02040        0.13970
C          0.00310       -0.98860       -1.03310
N          1.16260       -1.76440       -0.50390
C          0.52980       -2.92400        0.23240
C         -0.19480       -1.89010        1.11580
C          0.98650       -0.91560        0.77630
H          0.57620        1.80880       -0.49820
H         -2.08680       -0.96380       -0.01620
H         -0.27780       -0.96080       -2.07780
H         -0.05650       -3.60840       -0.38780
H          1.30770       -3.47510        0.76910
H         -0.57970       -2.08790        2.11540
H          1.85900       -0.70940        1.39370
