17
gdb 15671	3.15771	1.98865	1.35672	2.1843	64.99	-0.2553	0.0215	0.2768	928.0273	0.142304	-401.01246	-401.004481	-401.003537	-401.045035	28.622
C         -0.04370        1.44900        0.08700
O          0.09630        0.04150       -0.02420
C          0.64330       -0.56470        1.09200
O         -0.28170       -0.49480        2.21070
C         -0.76790       -1.75760        2.34900
N         -0.26180       -2.70250        1.67840
C          0.81810       -2.09260        0.87330
C          0.77590       -2.55340       -0.58020
H          0.92430        1.92720        0.29710
H         -0.41880        1.80700       -0.87350
H         -0.75130        1.71840        0.87910
H          1.55200       -0.04060        1.41570
H         -1.57830       -1.85070        3.06370
H          1.77150       -2.40170        1.32020
H         -0.16620       -2.26690       -1.05040
H          1.59490       -2.11190       -1.15500
H          0.86960       -3.64140       -0.61430
