20
gdb 11068	3.14077	2.18008	1.83726	1.3239	72.72	-0.2512	0.0739	0.3251	831.2889	0.180368	-349.031042	-349.024125	-349.023181	-349.061558	28.863
O         -0.04030        1.36970        0.01860
C          0.02460       -0.03730        0.00290
C          0.65340       -0.65260       -1.27190
C          0.08900       -2.10710       -1.27700
C         -0.79340       -2.14400       -0.00490
C          0.13220       -2.13320        1.23670
C          0.69680       -0.67880        1.24220
C         -1.36110       -0.71140        0.01980
H          0.85980        1.71140        0.00660
H          0.32270       -0.08440       -2.14630
H          1.74810       -0.61880       -1.24870
H         -0.51270       -2.29000       -2.17230
H          0.87380       -2.86910       -1.25440
H         -1.52360       -2.95540       -0.00070
H         -0.43840       -2.33470        2.14820
H          0.91540       -2.89430        1.17140
H          1.79000       -0.64410        1.18190
H          0.39670       -0.12890        2.13910
H         -1.93060       -0.47580        0.92370
H         -1.96130       -0.45730       -0.85890
