16
gdb 20782	4.69135	1.88929	1.45404	2.9532	71.38	-0.2326	0.0347	0.2672	863.7988	0.133022	-342.777039	-342.770312	-342.769368	-342.808131	25.413
C         -0.33180        1.62790       -0.15380
C          0.05960        0.17130        0.00750
C          0.82000       -0.53900       -1.19350
C          1.97070       -0.70830       -0.21000
C          3.17740       -1.11280        0.33110
C          3.08100       -0.64470        1.67180
N          1.92390       -0.01750        1.95110
N          1.30250       -0.08130        0.76720
H          0.50150        2.21470       -0.55130
H         -1.18080        1.71510       -0.83930
H         -0.62610        2.05670        0.80870
H         -0.77620       -0.42290        0.39110
H          0.35190       -1.46140       -1.54500
H          1.01230        0.11680       -2.04650
H          3.99740       -1.64290       -0.12300
H          3.82460       -0.74100        2.45030
