16
gdb 19700	4.77068	1.64899	1.52751	2.0115	62.53	-0.2373	0.0559	0.2932	853.9115	0.130917	-383.657258	-383.650471	-383.649527	-383.688568	26.102
O          0.07600        1.40270        0.11220
C          0.06400       -0.01280       -0.03720
C         -1.34850       -0.57640       -0.01230
C         -1.58050       -2.09050        0.00290
C         -1.54090       -2.47290        1.49570
O         -1.22960       -1.29990        2.25000
C         -2.12390       -0.59160        1.34200
C         -2.80090       -1.94330        0.90910
H         -0.11830        1.59630        1.03430
H          0.52750       -0.21890       -1.00870
H          0.67030       -0.50470        0.73410
H         -1.96870       -0.10130       -0.77900
H         -1.41830       -2.81200       -0.78770
H         -1.25960       -3.44170        1.88570
H         -2.58270        0.29030        1.78430
H         -3.81800       -2.30260        0.84720
