13
gdb 20772	3.34332	2.42332	1.41716	0.7571	63.84	-0.2643	-0.0586	0.2057	814.4401	0.096259	-394.769008	-394.762272	-394.761328	-394.800081	24.74
C          0.06960        1.49580        0.03930
C         -0.01190        0.00190        0.01080
N         -0.13030       -0.54480       -1.14760
O         -0.20680       -1.95850       -1.16820
C         -0.15290       -2.62700       -0.00880
N         -0.03700       -2.15580        1.16940
C          0.04530       -0.76030        1.27730
N          0.16390       -0.13000        2.38040
H          1.00300        1.80430        0.51870
H          0.01280        1.89860       -0.97260
H         -0.74170        1.89690        0.65350
H         -0.22380       -3.69720       -0.19360
H          0.18740       -0.80500        3.14900
