16
gdb 10425	2.65547	1.92231	1.38997	2.6221	64.9	-0.2473	0.0187	0.2661	920.2368	0.13138	-379.90159	-379.893621	-379.892677	-379.933999	28.903
O          0.14880        1.26970       -0.37560
C         -0.01830       -0.08820       -0.03790
C         -1.50200       -0.47650        0.12220
C         -2.26900       -0.48580       -1.23610
N         -1.99710       -1.93830       -1.33340
C         -1.73070       -2.02010        0.11910
C         -2.10010        0.28620        1.20620
N         -2.54030        0.91920        2.06880
H         -0.12120        1.80420        0.38000
H          0.39330       -0.67170       -0.86590
H          0.52740       -0.35800        0.87850
H         -3.32630       -0.22010       -1.11300
H         -1.82910        0.12580       -2.02890
H         -2.76960       -2.50390       -1.66500
H         -0.86770       -2.63590        0.39540
H         -2.59010       -2.30780        0.73780
