14
gdb 2654	19.87806	0.88634	0.87093	2.6389	59.58	-0.2611	-0.0407	0.2204	1261.2558	0.109902	-361.706503	-361.698175	-361.697231	-361.740878	26.558
C         -0.01140        1.40190       -0.05530
N         -0.12310        0.02800       -0.49860
C         -1.05880       -0.66080       -0.02670
O         -1.19760       -1.96200       -0.37530
C         -2.36100       -2.63270        0.07080
C         -2.01380       -4.09440        0.31310
O         -2.84290       -4.94230        0.50190
H          0.96650        1.55680        0.41410
H         -0.05750        2.07020       -0.92220
H         -0.79150        1.70780        0.66090
H         -1.81460       -0.30360        0.69130
H         -2.73810       -2.20820        1.01320
H         -3.16700       -2.56950       -0.67130
H         -0.92190       -4.30220        0.30980
