13
gdb 14812	2.61302	2.15667	1.32554	7.0623	62.59	-0.2749	-0.0131	0.2618	883.6993	0.096903	-357.634261	-357.627024	-357.62608	-357.666269	25.419
N         -0.09940       -1.22780       -0.00870
C         -0.06160       -0.07340        0.02270
C         -0.05190        1.37800        0.06630
C         -0.09320        1.99070        1.50230
N          1.36760        2.19780        1.42940
C          1.36120        2.06340       -0.03780
C          2.48040        1.32210       -0.61580
N          3.37050        0.76120       -1.09230
H         -0.78750        1.76800       -0.63770
H         -0.69510        2.90840        1.52190
H         -0.41470        1.32580        2.30650
H          1.72710        3.07460        1.78840
H          1.26040        3.01060       -0.58680
