20
gdb 11355	4.54025	1.19624	1.05613	2.1127	77.63	-0.2395	0.0173	0.2568	1183.8131	0.177353	-349.024977	-349.016277	-349.015333	-349.058682	32.105
C          0.00660        1.50150        0.35620
C         -0.08020        0.08120       -0.23120
C         -1.45950       -0.50930       -0.17410
C         -2.24290       -0.81280       -1.21420
C         -3.53270       -1.47910       -0.80670
O         -3.56810       -2.85530       -1.19840
C         -3.56950       -1.25620        0.72980
C         -2.13000       -0.86400        1.14070
H          1.02840        1.88650        0.28620
H         -0.65280        2.18760       -0.18430
H         -0.28370        1.51950        1.41110
H          0.26550        0.09670       -1.27070
H          0.61390       -0.56960        0.31970
H         -1.97110       -0.68270       -2.25690
H         -4.41380       -1.04780       -1.29330
H         -2.71250       -3.23500       -0.96960
H         -4.25830       -0.43910        0.96470
H         -3.94150       -2.15110        1.23440
H         -1.58780       -1.68190        1.63620
H         -2.12040       -0.03000        1.85120
