11
gdb 207	9.15078	3.49098	2.53565	1.7218	47.62	-0.1947	0.029	0.2237	483.7409	0.086736	-285.306999	-285.301863	-285.300919	-285.33518	19.259
N          0.02190        1.43030        0.17180
C          0.01180        0.03310        0.04180
C         -1.05920       -0.81020       -0.00500
O         -0.63690       -2.11380       -0.04260
C          0.71420       -2.08810       -0.02750
C          1.17510       -0.81170        0.02620
H          0.77290        1.86230       -0.35130
H         -0.85530        1.85560       -0.09950
H         -2.12510       -0.65870       -0.00860
H          1.20300       -3.04800       -0.05880
H          2.20640       -0.49540        0.05940
