14
gdb 15287	4.64951	1.15765	1.00757	3.5449	66.62	-0.3088	0.003	0.3118	1099.8856	0.107633	-341.602497	-341.594815	-341.593871	-341.635267	27.064
N         -0.01880       -1.05440       -0.50030
C         -0.00530        0.03830       -0.12580
C          0.03520        1.42230        0.34790
C          1.41620        2.03490        0.17350
C          1.82500        2.64130       -1.13190
C          1.57240        3.54720        0.06630
C          0.40950        4.38950        0.08240
N         -0.53810        5.05340        0.09840
H         -0.71630        2.00590       -0.19480
H         -0.26030        1.44140        1.40310
H          2.19560        1.54330        0.74630
H          2.85150        2.53570       -1.46120
H          1.09170        2.67070       -1.92980
H          2.43910        3.98050        0.55290
