16
gdb 4143	4.8316	1.51862	1.30964	2.1155	67.42	-0.2361	0.0133	0.2494	931.8433	0.131848	-379.868504	-379.861543	-379.860599	-379.899694	27.099
O         -0.34220        1.24990       -0.61790
N         -0.15670       -0.13760       -0.46310
C         -1.12330       -0.66410        0.17200
C         -2.37570        0.01820        0.69190
C         -3.31680       -1.13620        0.97900
N         -3.52610       -1.99550       -0.20590
C         -2.58450       -2.42450        0.84850
C         -1.13610       -2.15120        0.48640
H          0.42340        1.49680       -1.14690
H         -2.15180        0.58530        1.60480
H         -2.76570        0.72790       -0.04270
H         -4.12880       -1.00990        1.68720
H         -4.40060       -2.50430       -0.10330
H         -2.83250       -3.28700        1.45800
H         -0.78000       -2.74710       -0.35780
H         -0.48680       -2.36610        1.34510
