11
gdb 21871	4.20165	2.06881	1.38625	1.7033	57.22	-0.2525	-0.089	0.1635	792.2728	0.074741	-426.888694	-426.882642	-426.881698	-426.919066	22.51
O         -0.00720        1.28230        0.00760
C         -0.05470       -0.04450        0.00090
N         -1.20040       -0.63200        0.00400
C         -1.17490       -2.01650       -0.00350
N         -2.14840       -2.83040       -0.00250
N          0.12700       -2.57300       -0.01340
N          1.25970       -1.90660       -0.01600
N          1.21940       -0.63170       -0.00910
H          0.92860        1.53220        0.00390
H         -3.02380       -2.30940        0.00500
H          0.21710       -3.58040       -0.01920
