15
gdb 3048	10.83209	1.1221	1.08498	2.7776	58.49	-0.2564	-0.0281	0.2283	1053.735	0.122454	-345.630398	-345.622739	-345.621795	-345.663361	26.008
O         -0.08630        0.07010        0.24220
C          0.06070        1.20680       -0.12010
C          1.41750        1.84540       -0.35750
O          1.20870        3.18590       -0.73570
C          2.38940        3.87860       -1.00640
C          3.01720        3.75230       -2.37110
C          2.28410        5.01700       -1.96480
H         -0.79400        1.89140       -0.31550
H          2.01440        1.76430        0.56590
H          1.94980        1.27590       -1.13630
H          3.05160        3.97980       -0.14570
H          4.09820        3.77380       -2.45340
H          2.51770        3.10510       -3.08360
H          1.30900        5.18420       -2.40740
H          2.85570        5.91590       -1.76480
