21
gdb 20082	3.09716	1.57615	1.28435	0.9936	79.99	-0.2292	0.0849	0.3141	1065.6312	0.188007	-329.083865	-329.07496	-329.074015	-329.117223	33.072
C          0.01470        0.95630       -2.10140
C         -0.01170       -0.19970       -1.12420
C          1.18110       -0.57090       -0.26060
C          2.49160        0.18550       -0.30790
C         -0.05900        0.02410        0.37250
N          0.00800        1.37410        0.86030
C         -1.20770        1.91250        1.46130
C         -0.03760        1.54840        2.30820
H          0.49670        1.83620       -1.67290
H          0.54640        0.68340       -3.01980
H         -1.00380        1.24530       -2.38390
H         -0.59960       -1.04700       -1.46990
H          1.30190       -1.63870       -0.09300
H          2.33400        1.26440       -0.34200
H          3.09320       -0.03010        0.58220
H          3.08280       -0.10570       -1.18340
H         -0.69160       -0.65320        0.95500
H         -1.42780        2.95270        1.23830
H         -2.07990        1.26260        1.51210
H         -0.12850        0.65540        2.92460
H          0.61250        2.31790        2.71510
