12
gdb 21939	7.13411	1.27934	1.09324	6.8173	52.5	-0.2564	-0.0018	0.2546	984.8915	0.083398	-451.803412	-451.79601	-451.795065	-451.836445	25.318
O          0.03190        1.40920       -0.11140
C          0.00320        0.01210        0.00450
C         -1.42180       -0.44930        0.02050
N         -2.45610        0.31930        0.08150
O         -3.57070       -0.56270        0.08330
C         -3.15380       -1.86450        0.02300
O         -3.85800       -2.83190        0.00840
N         -1.76710       -1.77540       -0.01530
H          0.93780        1.70370        0.01950
H          0.51480       -0.49160       -0.83460
H          0.48520       -0.34510        0.93040
H         -1.16410       -2.57730       -0.07820
