15
gdb 18176	4.67343	1.6117	1.30439	4.6091	72.98	-0.2517	-0.0423	0.2094	914.3592	0.120988	-325.545176	-325.538663	-325.537719	-325.575805	25.235
N          0.06150       -1.13600       -0.00490
C          0.00890        0.02130        0.00710
C         -0.01980        1.44290        0.00780
C         -1.12760        2.20000        0.08010
C         -0.80550        3.67350        0.02350
C          0.72310        3.71460        0.01380
C          1.45850        3.13030        1.19070
C          1.22320        2.27880       -0.03960
H         -2.13380        1.81270        0.18420
H         -1.23120        4.12800       -0.88120
H         -1.23960        4.21760        0.87220
H          1.21660        4.48800       -0.56170
H          2.46950        3.48310        1.36280
H          0.90480        2.88240        2.09070
H          2.06230        1.96050       -0.64600
