20
gdb 14227	4.59359	1.68175	1.48387	0.2662	78.94	-0.2381	0.0977	0.3357	943.4843	0.177533	-311.829377	-311.821918	-311.820973	-311.860398	30.025
C         -0.13030        1.45890        0.02040
C          0.04340       -0.05480        0.03910
C          0.84510       -0.60290       -1.14370
C          2.14760       -0.51760       -0.37690
C          1.23270       -0.54930        0.91600
C          1.18230       -2.09390        0.78300
C          1.56890       -1.88150       -0.68290
C          2.06080       -2.91440       -1.65250
H          0.82530        1.96140       -0.16620
H         -0.82930        1.76930       -0.76420
H         -0.52280        1.82110        0.97720
H         -0.91940       -0.54110        0.24860
H          0.68680       -0.41180       -2.19910
H          3.10270       -0.07030       -0.61260
H          1.44810       -0.07210        1.87110
H          1.99490       -2.58020        1.33260
H          0.23230       -2.59080        1.01890
H          1.26820       -3.62460       -1.91740
H          2.41180       -2.45090       -2.58110
H          2.89470       -3.48910       -1.23280
