14
gdb 14900	3.33376	1.90449	1.69465	4.2383	61.49	-0.2672	0.004	0.2712	805.1499	0.109687	-378.743528	-378.736773	-378.735829	-378.774742	24.507
N         -0.05900       -1.20270       -0.12600
C         -0.03280       -0.05000       -0.05040
C         -0.00540        1.41190        0.03270
C         -0.70260        1.90970        1.30990
O          0.03860        1.55820        2.47630
C          1.38920        1.64940        2.36850
N          2.09630        1.85190        1.34170
C          1.44340        1.96260        0.04800
H         -0.54460        1.80360       -0.83720
H         -0.79620        3.00150        1.25730
H         -1.69490        1.47410        1.43520
H          1.84660        1.50560        3.34460
H          2.05400        1.43650       -0.69180
H          1.42200        3.01670       -0.25510
