14
gdb 6242	4.62156	1.15734	1.00824	3.2792	66.64	-0.2518	-0.0718	0.18	1127.271	0.102714	-382.536842	-382.527932	-382.526987	-382.572086	30.259
C          0.65290        0.85430        0.33820
C         -0.57810        0.07650       -0.06480
O         -1.62940        0.15290        0.52350
C         -0.45970       -0.83440       -1.29510
C          0.43870       -2.05400       -1.09410
O          1.32780       -2.11330       -0.27300
C          0.15770       -3.16000       -1.99000
C         -0.08780       -4.06600       -2.74350
H          0.99670        1.47910       -0.49460
H          0.43000        1.48000        1.20290
H          1.45900        0.15080        0.56760
H         -1.46070       -1.16090       -1.58650
H         -0.03530       -0.27280       -2.13960
H         -0.29260       -4.87670       -3.40060
