13
gdb 20588	3.4599	1.86085	1.21922	3.3262	63.02	-0.2636	-0.0573	0.2063	914.241	0.094908	-398.614975	-398.607759	-398.606815	-398.646965	25.074
C          0.04970        1.49920        0.05790
C         -0.06560        0.01730        0.07720
C         -1.12210       -0.85380       -0.03370
C         -2.54010       -0.56900       -0.21530
O         -3.39660       -1.42080       -0.30190
C         -0.50200       -2.13710        0.07190
N          0.78750       -2.05400        0.22940
O          1.06740       -0.67180        0.23270
H          0.70310        1.82210       -0.75880
H         -0.92930        1.96220       -0.07320
H          0.48720        1.86160        0.99360
H         -2.80020        0.51080       -0.27190
H         -0.98060       -3.10490        0.03470
