12
gdb 21972	5.36001	1.65675	1.26557	6.3043	60.8	-0.2448	-0.0631	0.1817	863.5924	0.085739	-414.617625	-414.611411	-414.610467	-414.648341	22.942
O         -0.05080       -0.00130        0.00370
N         -0.03100        1.22610        0.00690
O          0.98790        1.91460        0.00190
C         -1.29170        1.90620        0.01720
C         -1.43640        3.27800        0.02180
N         -2.77350        3.51800        0.03130
C         -3.47860        2.33110        0.03280
C         -2.57630        1.30020        0.02420
H         -0.69540        4.05800        0.01890
H         -3.18880        4.43410        0.03640
H         -4.55610        2.32860        0.04000
H         -2.77970        0.24320        0.02280
