15
gdb 10649	3.08386	1.67179	1.31762	4.1159	62.39	-0.2556	0.0179	0.2735	932.4536	0.118384	-399.786804	-399.778789	-399.777845	-399.819037	29.599
O          0.73000       -0.09100       -0.69710
C         -0.17780        0.28390        0.33440
C         -1.54740       -0.39670        0.20240
C         -2.05720       -0.83770       -1.17660
C         -1.59590       -1.87730       -0.20110
O         -0.43170       -2.60250       -0.36410
C         -2.51230        0.07420        1.15540
N         -3.27760        0.45990        1.93400
H          0.54720        0.44120       -1.47770
H          0.28760       -0.02810        1.27390
H         -0.30420        1.37250        0.36910
H         -3.11630       -0.73100       -1.37940
H         -1.40740       -0.62670       -2.01900
H         -2.35840       -2.48030        0.27970
H          0.24890       -2.00280       -0.70560
