20
gdb 15716	3.30579	1.54529	1.21169	1.7011	70.72	-0.2405	0.0678	0.3082	1061.5706	0.177104	-386.144195	-386.135415	-386.134471	-386.177788	31.865
C         -0.05950        1.59490        0.07200
C          0.00890        0.06470        0.12980
C         -1.35080       -0.60820       -0.06600
C         -2.01550       -0.39610       -1.43470
O         -2.97950       -1.43940       -1.57320
C         -2.68440       -2.48700       -0.65560
C         -1.34450       -2.14430        0.00800
O         -0.23220       -2.60990       -0.74760
H          0.92430        2.03830        0.25400
H         -0.40270        1.94710       -0.90650
H         -0.74790        1.99260        0.82650
H          0.70320       -0.31110       -0.62780
H          0.41900       -0.24410        1.09950
H         -2.04470       -0.25400        0.70870
H         -2.53610        0.56250       -1.52110
H         -1.26700       -0.45990       -2.23850
H         -3.48640       -2.56150        0.09410
H         -2.63480       -3.44520       -1.19150
H         -1.29410       -2.51370        1.04240
H         -0.31080       -3.56390       -0.84180
