16
gdb 8019	3.34937	2.12067	1.58117	3.8313	66.08	-0.2345	0.0194	0.2539	839.1073	0.130992	-379.890505	-379.883323	-379.882378	-379.921699	27.502
C         -0.16600        1.57250        0.02850
C          0.05480        0.08880        0.09480
C         -1.11980       -0.91220        0.17540
N         -0.35030       -1.76190        1.13150
C          0.74170       -0.74980        1.20920
C          1.78990       -1.02520        0.14970
N          2.89520       -1.61200        0.11580
O          1.08860       -0.36230       -0.84920
H          0.77780        2.11100        0.15250
H         -0.59230        1.85180       -0.94130
H         -0.85950        1.89470        0.81090
H         -2.02420       -0.46040        0.60060
H         -1.37540       -1.41500       -0.76220
H         -0.82150       -1.89170        2.01790
H          1.05360       -0.40360        2.19400
H          3.29810       -1.59460       -0.82320
