17
gdb 17306	2.66778	2.53043	1.75143	2.4368	68.28	-0.2157	0.0657	0.2814	817.5788	0.141365	-363.765725	-363.758285	-363.757341	-363.7968	29.17
C          0.03460        1.48300        0.01750
C         -0.02870       -0.01350        0.02190
C         -0.93840       -0.81460        0.89460
O         -1.95890       -1.67600        0.46340
C          0.53930       -1.08690        0.98530
C          1.15380       -1.73490       -0.26200
C          0.21630       -2.08020       -1.35250
N          0.63560       -0.66640       -1.17930
H          1.05480        1.82600       -0.17990
H         -0.60920        1.88530       -0.77390
H         -0.29740        1.89810        0.97370
H         -1.24910       -0.19920        1.74390
H         -2.01340       -2.40090        1.09640
H          1.09150       -0.96360        1.90950
H          2.20470       -2.00590       -0.28770
H          0.66540       -2.50440       -2.24740
H         -0.80250       -2.37150       -1.15010
