15
gdb 11331	4.58594	1.4951	1.14656	1.1525	66.5	-0.2286	-0.0026	0.226	1000.2881	0.120133	-396.033958	-396.026217	-396.025273	-396.066492	27.65
C          0.07090        1.42350        0.03710
N          0.03770       -0.02240       -0.06340
C         -1.08110       -0.61350       -0.08520
N         -1.24210       -1.98690       -0.20090
C         -2.60900       -2.38870        0.07060
C         -3.36430       -1.05480        0.07230
O         -4.55390       -0.87650        0.13630
N         -2.38360       -0.08790       -0.00890
H          1.04560        1.73330        0.42430
H         -0.04950        1.90200       -0.94580
H         -0.69230        1.84630        0.71130
H         -0.46100       -2.55190        0.08940
H         -3.02270       -3.05110       -0.69710
H         -2.74450       -2.87510        1.04660
H         -2.59510        0.89540       -0.03760
