16
gdb 5564	3.29393	1.87291	1.2614	3.8114	67.31	-0.2127	0.0278	0.2404	942.502	0.131989	-379.961766	-379.95389	-379.952946	-379.994178	28.633
C          0.22460        1.49100        0.00680
C          0.10510        0.00550       -0.07040
C         -0.02090       -0.86140       -1.13390
C         -0.06570       -0.53850       -2.59870
O          0.91660        0.41660       -3.00080
N         -0.10880       -2.16650       -0.68970
C         -0.04540       -2.09830        0.61760
N          0.08620       -0.80900        1.04450
H          1.05670        1.80130        0.65060
H          0.40950        1.88380       -0.99420
H         -0.68580        1.96050        0.40040
H          0.02670       -1.48070       -3.15600
H         -1.02400       -0.08710       -2.88080
H          1.77200        0.07140       -2.72320
H         -0.07980       -2.93280        1.30220
H          0.17290       -0.50140        1.99920
