14
gdb 10002	3.15718	1.28011	0.97459	1.3046	59.97	-0.259	-0.0649	0.194	1120.2	0.102618	-419.695177	-419.686335	-419.685391	-419.730654	28.528
O         -0.06750       -0.12270       -0.21930
C         -0.10830        1.08050       -0.20110
C          1.11930        1.95890       -0.03510
C          1.39150        2.83550       -1.26750
C          0.41960        4.00800       -1.41040
O         -0.53420        4.16990       -0.69650
C          2.81930        3.39170       -1.30590
O          3.22600        4.09350       -2.19230
H         -1.06400        1.63240       -0.31150
H          0.95750        2.61140        0.83200
H          1.97410        1.30600        0.16390
H          1.29270        2.25600       -2.19870
H          0.67750        4.70960       -2.22780
H          3.45610        3.11070       -0.43860
