15
gdb 8829	3.17209	1.48899	1.17602	1.7226	63.72	-0.2483	-0.0013	0.247	1040.0346	0.116734	-399.781914	-399.772772	-399.771827	-399.816152	31.438
C         -0.04270        1.35580        0.02370
O         -0.03080       -0.07630       -0.08050
C          0.60750       -0.56790       -1.14870
O          1.12240        0.09540       -2.01050
C          0.62160       -2.10370       -1.12130
N          0.71490       -2.57900       -2.50200
C          1.71230       -2.54080       -0.23660
C          2.61920       -2.92810        0.45130
H          0.97730        1.74270        0.08570
H         -0.53770        1.79780       -0.84410
H         -0.59410        1.58020        0.93620
H         -0.32970       -2.43180       -0.68590
H          1.41400       -2.01480       -2.97880
H          1.04380       -3.53890       -2.50600
H          3.41730       -3.26850        1.06380
