18
gdb 4132	4.00606	1.20241	1.1415	1.2258	72.86	-0.2303	0.0098	0.2401	1120.3946	0.152324	-381.060489	-381.05156	-381.050616	-381.094008	32.667
C          0.95380        1.05880       -0.76400
C          0.05620        0.10190       -0.01750
N          0.62430       -1.16690        0.44850
C          0.13740       -0.20080        1.44980
C          1.11800        0.38610        2.40840
C          2.59850        0.34710        2.15510
N          0.57830        0.88020        3.46060
O          1.53380        1.43700        4.32480
H          1.97110        1.05240       -0.37130
H          1.00240        0.78510       -1.82370
H          0.56350        2.08010       -0.69890
H         -0.95990        0.06240       -0.41130
H         -0.03260       -1.93410        0.34270
H         -0.82040       -0.39510        1.92630
H          2.82930       -0.36970        1.36730
H          2.97290        1.33630        1.86740
H          3.12000        0.07230        3.07560
H          0.99090        1.71840        5.06850
