16
gdb 5132	3.65219	2.06609	1.34201	3.2929	67.79	-0.187	0.0368	0.2238	901.7142	0.131201	-379.981176	-379.973079	-379.972134	-380.013737	28.661
C         -0.01730        1.43550        0.01800
N          0.05480       -0.00620       -0.03130
C          0.18620       -0.80760       -1.16170
C          0.21330       -2.09270       -0.75260
N          0.09870       -2.09790        0.63450
C          0.08110       -3.24760        1.50860
C         -0.00240       -0.79590        1.11140
O         -0.11570       -0.42940        2.27060
H          0.88990        1.89380       -0.39090
H         -0.88400        1.81010       -0.53750
H         -0.11710        1.71370        1.06860
H          0.24790       -0.38810       -2.15110
H          0.30320       -3.00400       -1.31840
H         -0.76380       -3.90700        1.28230
H          1.01000       -3.82280        1.42880
H         -0.02090       -2.87110        2.52790
