19
gdb 2034	4.21789	2.42461	2.15648	0.221	70.62	-0.2499	0.0907	0.3406	731.4611	0.171706	-273.762561	-273.755461	-273.754517	-273.792799	28.402
C         -0.08250        1.56860        0.05470
C          0.03010        0.04490        0.03150
C         -1.33810       -0.59180       -0.22030
C          1.12980       -0.57580       -0.91160
C          1.75330       -1.28270        0.29720
C          2.19050       -0.26920        1.31530
C          0.73370       -0.62910        1.23090
H          0.88140        2.04870        0.24710
H         -0.45460        1.94670       -0.90480
H         -0.78040        1.89790        0.83350
H         -1.74990       -0.27170       -1.18430
H         -1.27070       -1.68480       -0.22700
H         -2.05320       -0.30620        0.56040
H          0.70260       -1.25500       -1.65350
H          1.78330        0.13620       -1.42810
H          2.12860       -2.29870        0.30540
H          2.71040       -0.66970        2.18030
H          2.55080        0.70740        1.00080
H          0.20930       -1.06230        2.07620
