16
gdb 15611	3.31922	1.83785	1.21442	5.291	69.6	-0.2311	-0.0498	0.1813	977.0137	0.130833	-379.94805	-379.94008	-379.939136	-379.98072	28.367
C         -0.01540        1.41300       -0.01740
N         -0.06960       -0.03710       -0.00030
C          0.54950       -0.62620        0.94310
N          1.30920       -0.10950        1.97240
C          1.66500       -1.08250        3.00540
C          1.48630       -2.43690        2.29900
C          0.58590       -2.13570        1.09900
O          0.01640       -2.93560        0.40940
H          1.01630        1.78750       -0.11540
H         -0.59170        1.79320       -0.86390
H         -0.43750        1.85960        0.89910
H          1.25920        0.86980        2.20070
H          2.68940       -0.91870        3.35330
H          1.00120       -1.00530        3.87760
H          2.43990       -2.81540        1.91450
H          1.05420       -3.21370        2.93160
