16
gdb 396	5.34544	2.4935	2.04825	2.2435	53.28	-0.2545	0.079	0.3335	670.6307	0.141335	-308.757315	-308.74959	-308.748646	-308.788936	26.699
C         -0.16680        1.25930       -0.00760
O          0.14120       -0.11450       -0.02510
C          0.73040       -0.63020        1.16820
C         -0.27870       -0.74860        2.31200
C          1.29720       -1.98960        0.75100
O          0.28750       -2.83960        0.24140
H          0.71700        1.86770        0.23980
H         -0.50580        1.52600       -1.01190
H         -0.96610        1.50620        0.70530
H          1.56610        0.02280        1.47210
H         -0.73960        0.21370        2.55040
H         -1.06180       -1.46180        2.04360
H          0.22130       -1.10880        3.21680
H          2.09380       -1.82590        0.00900
H          1.73710       -2.49550        1.61660
H         -0.16660       -2.32310       -0.43530
