14
gdb 9083	6.33168	0.9727	0.8821	1.6882	60.15	-0.2843	0.0006	0.2849	1207.3572	0.106553	-415.878646	-415.870201	-415.869257	-415.912263	28.785
N         -0.35400        1.28220        0.36670
C         -0.17100       -0.12260        0.01320
C         -1.54150       -0.82320       -0.08670
O         -2.13290       -0.90110        1.19870
C         -2.96240        0.10310        1.57730
O         -3.41920        0.16730        2.67550
C          0.58820       -0.33100       -1.23640
N          1.16320       -0.45200       -2.23200
H          0.50890        1.68140        0.71970
H         -0.62080        1.82430       -0.44970
H          0.37450       -0.60910        0.82890
H         -2.18630       -0.28070       -0.79050
H         -1.42170       -1.84720       -0.44630
H         -3.17560        0.81260        0.75830
