22
gdb 7590	2.6107	1.58457	1.39409	1.7231	78.02	-0.2531	0.082	0.3352	1077.7512	0.197232	-350.20572	-350.195698	-350.194754	-350.240192	36.877
C         -0.75590        0.98730       -0.08420
C         -1.00410       -0.20400       -1.02350
C         -2.16190        0.07070       -1.99510
C          0.27440       -0.61250       -1.75310
C          0.88210        0.40290       -2.70340
O          1.24890       -1.27160       -0.91900
C          0.62580       -2.03410       -1.96110
C         -0.19010       -3.23750       -1.56040
H          0.08850        0.78510        0.58110
H         -0.54200        1.90670       -0.63920
H         -1.63950        1.17700        0.53360
H         -1.28870       -1.05040       -0.39120
H         -1.96800        0.95220       -2.61540
H         -2.33630       -0.77880       -2.66360
H         -3.08780        0.25860       -1.44220
H          1.09290        1.34760       -2.19310
H          1.82500        0.02200       -3.10290
H          0.21390        0.61610       -3.54370
H          1.29520       -2.23270       -2.80300
H         -0.85710       -3.03190       -0.72180
H         -0.78900       -3.59070       -2.40720
H          0.47730       -4.05390       -1.26340
