17
gdb 14963	4.48649	1.53607	1.20393	2.3796	68.11	-0.2425	0.0188	0.2613	1003.2212	0.142879	-400.997649	-400.989829	-400.988884	-401.030295	28.07
C         -0.19800        1.45240       -0.02550
N         -0.10790        0.00180       -0.05840
C          0.64700       -0.56590       -0.89410
C          0.66490       -2.07980       -0.98860
O          1.91310       -2.61240       -1.39600
C          2.34360       -1.99430       -2.59260
C          2.56300       -0.51400       -2.34240
O          1.38110        0.11640       -1.82690
H          0.65160        1.96360       -0.49140
H         -1.11250        1.77390       -0.53980
H         -0.28780        1.77530        1.01620
H          0.42540       -2.49640       -0.01070
H         -0.12290       -2.38600       -1.69940
H          3.28100       -2.47320       -2.89010
H          1.60240       -2.14200       -3.39590
H          3.38010       -0.37870       -1.62220
H          2.81190        0.01900       -3.26430
