14
gdb 551	9.7394	2.33341	2.0649	0.7819	59.52	-0.2544	0.0501	0.3045	624.2663	0.119752	-233.25376	-233.247695	-233.24675	-233.283102	22.582
C         -0.39720       -1.17190       -0.47320
C         -0.17370       -0.02140       -0.20110
C          0.11500        1.35330        0.14880
C         -0.02520        1.80740        1.63950
C          1.24110        2.68310        1.45040
C          1.60410        1.82990        0.20690
H         -0.59880       -2.18490       -0.71830
H         -0.45950        2.02950       -0.49400
H         -0.95920        2.29670        1.92350
H          0.15660        0.96870        2.31580
H          0.98660        3.71120        1.17700
H          1.96150        2.71110        2.27020
H          2.26460        0.99770        0.46240
H          1.99760        2.33740       -0.67620
