10
gdb 2813	4.18141	2.38983	1.65881	3.4452	53.72	-0.2863	-0.0212	0.2651	694.9023	0.065073	-322.118085	-322.111612	-322.110668	-322.148618	22.632
C         -0.11730       -1.20780        0.00850
C         -0.03570       -0.00970        0.01470
C          0.03050        1.42290       -0.00100
O          0.53130        2.08760        1.16650
C          1.32440        2.15870       -0.01140
C          2.58690        1.45270       -0.00230
N          3.61070        0.91780       -0.02280
H         -0.17480       -2.26890        0.00870
H         -0.81110        1.93170       -0.46970
H          1.35850        3.13450       -0.49320
