19
gdb 12249	3.58448	1.39487	1.08007	2.6193	73.49	-0.2287	-0.0209	0.2079	1131.0145	0.163325	-365.06255	-365.053676	-365.052732	-365.096085	32.033
C         -0.00710        1.52670        0.07520
C         -0.09950        0.00740       -0.04200
N          0.60360       -0.48890       -1.21210
C          0.00380       -0.22780       -2.54190
C          0.32360       -1.68510       -2.90090
O          0.36040       -2.32830       -3.90610
C          0.63610       -1.96090       -1.42120
C          1.92340       -2.68280       -1.05790
H          1.03810        1.84520        0.12220
H         -0.47230        2.01900       -0.78550
H         -0.52140        1.87600        0.97560
H          0.35460       -0.45770        0.84110
H         -1.16480       -0.30160       -0.05100
H         -1.08600       -0.05230       -2.52460
H          0.47960        0.55770       -3.13750
H         -0.23290       -2.46810       -0.96160
H          2.78340       -2.18750       -1.51610
H          2.07200       -2.69690        0.02650
H          1.88480       -3.71810       -1.41040
