17
gdb 19558	3.9497	1.82024	1.70686	1.9121	67.45	-0.2308	0.0721	0.3029	834.0012	0.143733	-363.77743	-363.770557	-363.769613	-363.808672	26.636
O          0.06830        1.36790        0.22140
C          0.04590       -0.03100       -0.02110
C         -1.33960       -0.56840        0.04520
C         -2.35140       -0.87180        1.11010
C         -3.29190        0.12860        0.46660
N         -2.49850        0.00490       -0.82210
C         -2.79730       -1.42890       -1.22130
C         -2.02670       -1.90120       -0.00030
H         -0.53620        1.76020       -0.42000
H          0.49530       -0.26870       -0.99900
H          0.66990       -0.49900        0.74820
H         -2.17390       -1.09880        2.15410
H         -4.35780       -0.10630        0.36560
H         -3.17100        1.13690        0.86950
H         -3.86430       -1.66040       -1.31780
H         -2.28610       -1.65840       -2.15980
H         -1.61920       -2.87610        0.23840
