18
gdb 6564	3.11622	2.05274	1.57023	1.6413	68.61	-0.2444	0.0884	0.3328	886.688	0.151878	-384.893371	-384.885324	-384.88438	-384.925065	31.226
C          0.00060        1.46740        0.07920
C         -0.05910       -0.01560       -0.09710
C          0.62400       -0.94240       -1.12560
C          0.00040       -1.83940       -0.03480
C          0.15590       -3.29980        0.24210
O          0.51110       -0.87360        0.99440
C         -1.29210       -0.96960       -0.09290
O         -2.11660       -0.95820        1.02480
H          1.02930        1.80050        0.24550
H         -0.38760        1.96870       -0.81310
H         -0.60930        1.77220        0.93550
H          0.20410       -0.99060       -2.13470
H          1.71400       -0.90660       -1.11800
H          1.20370       -3.55320        0.42860
H         -0.43480       -3.58450        1.11850
H         -0.19680       -3.88500       -0.61300
H         -1.91120       -1.02050       -0.99210
H         -1.50340       -0.91260        1.77450
