20
gdb 15088	2.48193	1.7613	1.26242	2.1217	71.13	-0.2467	0.0715	0.3181	1053.8505	0.175897	-386.108521	-386.099301	-386.098357	-386.142747	33.196
C          0.06080        1.42510       -0.05320
O         -0.03670        0.01760       -0.12230
C          0.68640       -0.58130       -1.20040
C          2.13550       -0.82430       -0.75250
O          2.19540       -1.57960        0.43880
C         -0.02580       -1.85800       -1.60380
C         -0.80280       -2.68320       -0.61350
C         -1.52870       -1.91900       -1.69320
H          1.09300        1.76910        0.10220
H         -0.32790        1.89820       -0.96670
H         -0.54510        1.74710        0.79750
H          0.69730        0.10930       -2.06020
H          2.67440       -1.38380       -1.52540
H          2.64950        0.14510       -0.63760
H          1.51120       -1.21240        1.01190
H          0.52240       -2.41270       -2.36050
H         -0.73750       -3.76260       -0.68920
H         -0.88940       -2.30570        0.39760
H         -2.08010       -1.03840       -1.38380
H         -1.97150       -2.46830       -2.51670
