18
gdb 6992	2.65901	1.93752	1.50571	2.8895	68.13	-0.2343	-0.0177	0.2166	921.6861	0.150828	-384.952142	-384.943141	-384.942197	-384.985367	32.977
C         -0.12900        1.48250        0.03720
C         -0.06070       -0.05010       -0.02970
C         -1.42850       -0.68670        0.20410
C          0.76340       -0.57630       -1.25720
O          0.89510        0.37020       -2.29040
C          2.00180       -0.83350       -0.34190
C          1.07490       -0.59790        0.85950
O          1.15690       -0.83090        2.03160
H          0.85170        1.94560       -0.09730
H         -0.78350        1.86510       -0.75090
H         -0.52690        1.79240        1.00810
H         -2.15200       -0.33440       -0.53900
H         -1.38070       -1.77870        0.14230
H         -1.80400       -0.42680        1.19860
H          0.34260       -1.51920       -1.63260
H          1.44740       -0.00880       -2.98120
H          2.50690       -1.80100       -0.39270
H          2.74440       -0.03370       -0.43890
