13
gdb 1261	7.79011	1.06645	0.9491	4.7432	61.49	-0.2573	-0.0481	0.2092	1157.3028	0.098529	-344.431301	-344.422854	-344.42191	-344.465251	27.325
C          0.00300        1.48700       -0.05220
C         -0.01890       -0.02400        0.06550
O         -0.04710       -0.60390        1.12950
C         -0.00390       -0.74430       -1.19450
C          0.00860       -1.34190       -2.24290
C          0.02430       -2.03980       -3.52000
O          0.00140       -3.44120       -3.30720
H          0.89860        1.80940       -0.59430
H         -0.86200        1.83230       -0.62870
H         -0.01070        1.92980        0.94460
H         -0.84400       -1.70290       -4.11040
H          0.92390       -1.72650       -4.07570
H          0.01260       -3.86580       -4.17120
