15
gdb 4520	3.71124	1.69987	1.17719	1.1345	65.15	-0.1582	0.057	0.2152	968.4704	0.119785	-395.994234	-395.985815	-395.98487	-396.026522	31.154
N          0.17980        1.39460        0.12450
C          0.00850       -0.00070       -0.00110
C         -1.11190       -0.79760       -0.06680
C         -0.67320       -2.16290       -0.06490
N         -1.48160       -3.31180       -0.21070
C          0.69540       -2.14080       -0.01310
O          1.59790       -3.16860        0.03630
N          1.11370       -0.81420        0.00260
H          0.48110        1.82510       -0.74580
H         -0.69230        1.83270        0.39510
H         -2.13210       -0.45280       -0.14770
H         -2.34160       -3.22920        0.31920
H         -0.98910       -4.13490        0.11890
H          1.78990       -3.46890       -0.86080
H          2.02980       -0.51480        0.28990
