15
gdb 19998	3.92714	1.37731	1.14523	3.8158	66.58	-0.2855	-0.0019	0.2836	1032.8862	0.118511	-362.634841	-362.627359	-362.626415	-362.667257	27.085
N         -0.20090       -1.11600        0.36860
C         -0.09950        0.02780        0.23590
C          0.01220        1.45780        0.04340
O          0.58470        2.20620        1.11760
C          1.33740        2.10760       -0.09390
C          2.62120        1.36120       -0.06030
C          3.53890        1.43050       -1.26020
C          3.91910        2.13280        0.01290
H         -0.85690        1.91220       -0.42900
H          1.34990        3.03010       -0.67840
H          2.57870        0.41840        0.47410
H          4.06760        0.52660       -1.53850
H          3.22740        2.03950       -2.10270
H          3.86340        3.21620        0.03320
H          4.71420        1.71710        0.62050
