16
gdb 19413	3.22512	2.15639	1.65995	1.8872	64.23	-0.2491	0.0795	0.3286	814.9198	0.130202	-383.676922	-383.669976	-383.669032	-383.707878	27.195
O          0.15320        1.37840       -0.07100
C          0.03140       -0.01460       -0.04280
C          0.30430       -0.71090        1.30990
O         -0.66850       -0.17600        2.22120
C         -1.06300       -1.25660        1.34800
C         -1.40240       -0.62970        0.01620
C         -2.68000        0.00850       -0.42900
C         -2.16210       -1.22960       -1.12740
H         -0.29320        1.69630        0.72500
H          0.62900       -0.41410       -0.86680
H          1.23370       -1.07700        1.73030
H         -1.44360       -2.15690        1.81540
H         -3.55650       -0.08390        0.20370
H         -2.59260        0.95840       -0.94670
H         -1.74710       -1.12430       -2.12490
H         -2.68620       -2.16560       -0.96050
