21
gdb 1315	3.09416	2.42914	2.00669	0.0751	74.1	-0.2775	0.0802	0.3577	813.6898	0.194083	-274.989422	-274.981221	-274.980277	-275.020859	31.786
C         -0.65200        1.23870       -0.05930
C          0.15510       -0.05050       -0.10970
C          1.56450       -0.04640       -0.75970
C          2.02980       -1.05520        0.32190
C          0.79220       -0.66460        1.19250
C          1.15920        0.38250        2.24800
C          0.01920       -1.81630        1.82850
H         -0.08300        2.05820        0.39150
H         -0.93840        1.55450       -1.06900
H         -1.57490        1.11520        0.51920
H         -0.45170       -0.83100       -0.58540
H          1.63750       -0.35410       -1.80580
H          2.05760        0.92550       -0.65560
H          1.96790       -2.08980       -0.02940
H          3.01660       -0.90010        0.76760
H          1.73640        1.21070        1.82410
H          0.26670        0.80640        2.72160
H          1.76910       -0.07260        3.03690
H          0.60420       -2.29790        2.62150
H         -0.91790       -1.46630        2.27870
H         -0.23220       -2.58280        1.08740
