14
gdb 9573	4.40576	1.31659	1.26292	4.6259	70.34	-0.266	0.0056	0.2716	979.2627	0.106237	-341.543769	-341.535701	-341.534756	-341.575953	29.811
N         -0.03740        1.44940        0.04970
C          0.01940        0.01030        0.02360
C         -0.45240       -0.67110        1.28670
C         -1.34560       -0.70400        0.06570
C         -2.55150        0.07190        0.01350
N         -3.54070        0.66750       -0.05360
C          1.04730       -0.62630       -0.76510
C          1.91800       -1.11680       -1.43490
H          0.82860        1.82340        0.42600
H         -0.14200        1.81850       -0.89080
H          0.01640       -1.60280        1.57700
H         -0.74710       -0.00830        2.09050
H         -1.39600       -1.64250       -0.47430
H          2.68660       -1.55150       -2.02530
