11
gdb 21513	5.39898	1.79903	1.34939	2.2919	53.36	-0.2944	-0.0644	0.2299	810.8802	0.073841	-426.913885	-426.907332	-426.906388	-426.945111	22.932
N         -0.09080        1.29780        0.00950
C          0.11150       -0.03510        0.00140
O          1.15150       -0.62920       -0.01080
N         -1.16080       -0.75500        0.01030
N         -1.24950       -2.08040        0.00680
C         -2.55900       -2.25200        0.01730
N         -3.24840       -1.07800        0.02720
N         -2.35040       -0.13920        0.02260
H          0.71900        1.89270        0.00230
H         -1.02020        1.68500        0.01770
H         -3.03000       -3.22120        0.01820
