22
gdb 13216	3.40197	1.35167	1.15317	1.127	78.84	-0.2485	0.0823	0.3308	1162.3822	0.199476	-350.190122	-350.180833	-350.179889	-350.224311	33.901
C         -0.12580        1.50290       -0.05280
O         -0.07320        0.11930        0.19440
C         -1.30690       -0.57220        0.02570
C         -1.64320       -0.77830       -1.45530
C         -1.19240       -1.89580        0.77400
C          0.02000       -2.82950        0.48220
C          0.09320       -3.14210        2.00130
C         -0.76680       -1.87770        2.26840
H          0.85130        1.91520        0.21270
H         -0.32550        1.74070       -1.10810
H         -0.89580        1.99680        0.56110
H         -2.11050        0.02350        0.49550
H         -2.59800       -1.30360       -1.55990
H         -1.72960        0.17310       -1.98800
H         -0.86550       -1.37390       -1.94330
H         -2.13440       -2.44150        0.65000
H         -0.13370       -3.66650       -0.20350
H          0.88200       -2.24740        0.14780
H         -0.44470       -4.06100        2.25310
H          1.08380       -3.18550        2.46040
H         -0.14510       -1.00370        2.47600
H         -1.55560       -1.94480        3.02230
