20
gdb 11957	3.35675	1.64793	1.33134	1.766	75.55	-0.2369	0.0873	0.3243	1026.7142	0.175449	-348.988411	-348.979739	-348.978795	-349.021346	32.529
C          0.30010        1.46420       -0.18890
C         -0.17730        0.02850        0.07440
C          0.41320       -0.55130        1.32260
C          0.09030       -0.20620        2.78960
C          0.56380       -1.64750        3.18460
C          0.86280       -1.91080        1.69760
C          0.88740       -3.21820        0.97460
O          1.81180       -0.90230        1.30290
H          1.38900        1.49370       -0.28740
H         -0.13880        1.86020       -1.10940
H          0.01850        2.13290        0.63120
H         -1.27150        0.00770        0.15710
H          0.09190       -0.61220       -0.77280
H          0.65940        0.62870        3.20530
H         -0.97580       -0.04850        2.97340
H          1.43000       -1.71760        3.84730
H         -0.24830       -2.26350        3.57980
H         -0.01660       -3.79810        1.18750
H          0.95940       -3.06280       -0.10520
H          1.75110       -3.81650        1.28750
