20
gdb 8574	3.99877	1.80529	1.56654	0.254	80.22	-0.2208	0.0269	0.2477	913.1791	0.179611	-311.876751	-311.86978	-311.868836	-311.907393	28.68
C          0.00700        1.51190        0.04610
C         -0.00200        0.01300       -0.02570
C         -0.02510       -0.68870       -1.16300
C         -0.03170       -2.20090       -1.09300
C         -1.08400       -2.63720       -0.02660
C          0.00410       -2.27990        1.02770
C          1.05190       -2.64820       -0.06310
C          0.01630       -0.76260        1.28090
H          0.89710        1.88110        0.57290
H         -0.00820        1.96300       -0.95010
H         -0.86000        1.89020        0.60400
H         -0.03910       -0.19660       -2.13180
H         -0.05100       -2.67330       -2.07630
H         -2.03180       -2.09290       -0.00100
H         -1.27360       -3.71400       -0.05410
H          0.01730       -2.83910        1.96670
H          1.22930       -3.72690       -0.09690
H          2.00560       -2.11370       -0.07000
H          0.90400       -0.48280        1.86780
H         -0.84790       -0.47380        1.89770
