15
gdb 17878	3.41575	2.11733	1.98908	1.9218	60.51	-0.2374	-0.0227	0.2147	746.0023	0.121345	-399.780678	-399.774419	-399.773475	-399.811012	24.368
O          0.00360        0.00910        0.11260
C         -0.01350        1.19970        0.03310
C         -1.05670        2.31640       -0.02720
C         -1.23760        2.86830        1.42460
N         -0.01750        3.55570        1.85360
C          1.20710        2.90090        1.38770
C          0.99720        2.34380       -0.05820
O         -0.05030        3.14030       -0.68830
H         -1.98150        2.20460       -0.59640
H         -2.06940        3.57660        1.46810
H         -1.47510        2.03800        2.10170
H         -0.03610        4.47660        1.43260
H          2.02060        3.63120        1.40630
H          1.48700        2.07750        2.05700
H          1.90700        2.25650       -0.65510
