16
gdb 18501	5.98857	1.12837	1.05834	2.9362	65.23	-0.2483	-0.0212	0.2271	1089.8721	0.129202	-383.704784	-383.697301	-383.696357	-383.737534	26.954
O         -0.21660        0.02650       -0.17090
C          0.03680        1.19130        0.00220
C          1.39240        1.82270       -0.21060
C          1.35630        2.94530       -1.25230
C          0.55240        4.26740       -0.93280
C          1.86800        5.04100       -1.07020
O          2.78000        4.49230       -0.10920
C          2.62540        3.81290       -1.35810
H         -0.75580        1.90070        0.33760
H          1.72570        2.25850        0.74100
H          2.09650        1.03740       -0.50270
H          1.06880        2.55400       -2.23270
H         -0.18250        4.50580       -1.70460
H          0.08360        4.33830        0.05200
H          2.03580        6.06550       -1.38050
H          3.52110        3.64080       -1.94400
