18
gdb 6162	3.45959	1.41721	1.29668	1.8063	69.73	-0.2422	-0.0131	0.2291	1032.6066	0.150547	-384.954188	-384.945074	-384.94413	-384.987687	33.377
C         -0.17730        1.46710       -0.06070
C          0.13230       -0.01370        0.05420
O          0.41950       -0.52460        1.11880
C          0.06050       -0.79370       -1.21500
C          0.81340       -2.11820       -1.31610
C         -0.67960       -2.12900       -1.28500
C         -1.43980       -2.68980       -0.10760
O         -1.33560       -2.27160       -2.52030
H          0.53860        1.95060       -0.73560
H         -1.17170        1.61380       -0.49760
H         -0.12930        1.93590        0.92270
H         -0.02720       -0.21460       -2.12730
H          1.30340       -2.32960       -2.25920
H          1.34340       -2.41020       -0.41570
H         -0.93140       -2.46650        0.83090
H         -2.45170       -2.27410       -0.07510
H         -1.52540       -3.77930       -0.20370
H         -1.41050       -3.21550       -2.70200
