16
gdb 17862	4.58314	1.67352	1.50329	3.321	65.12	-0.2422	0.0765	0.3187	878.4958	0.129198	-383.640529	-383.633565	-383.632621	-383.671527	26.857
C         -0.00280        1.56530       -0.13990
C         -0.05280        0.06920        0.02510
O          1.21920       -0.63710       -0.07780
C          0.56040       -0.62850        1.14680
C          1.12800       -0.29350        2.53840
C         -0.20520       -0.79600        3.14760
C          0.25360       -1.81580        2.07480
O          1.63600       -1.68790        2.60460
H          0.82500        1.99240        0.43170
H          0.13210        1.83210       -1.19300
H         -0.93840        2.01960        0.20420
H         -0.86130       -0.43660       -0.50510
H          1.79310        0.50420        2.86580
H         -0.11160       -1.16080        4.17010
H         -1.11650       -0.21870        2.97050
H         -0.11510       -2.81610        1.85250
