20
gdb 12133	4.53766	1.5277	1.39142	0.3718	80.03	-0.2356	0.0968	0.3323	989.9384	0.177064	-311.831667	-311.823982	-311.823037	-311.863109	30.784
C         -0.01550        1.53370        0.05710
C          0.05920        0.03520        0.00510
C         -0.83760       -0.86400        0.81330
C          0.65530       -0.96270        1.00870
C          1.26000       -1.75230       -0.13390
C          2.63620       -2.33990       -0.17080
C          1.41950       -3.24120       -0.24570
C          0.66970       -0.76450       -1.16330
H          0.94620        1.99230       -0.20100
H         -0.76450        1.91990       -0.64570
H         -0.29440        1.88220        1.05720
H         -1.37920       -0.37050        1.61520
H         -1.38110       -1.68260        0.34600
H          1.12870       -0.77180        1.96590
H          3.23030       -2.20490       -1.06960
H          3.21620       -2.34440        0.74710
H          1.18120       -3.85130        0.62000
H          1.19520       -3.71160       -1.19790
H         -0.03960       -1.16760       -1.89530
H          1.44580       -0.20500       -1.69510
