13
gdb 20501	9.1155	0.97448	0.88523	3.4568	72.1	-0.2349	-0.0231	0.2117	1239.0891	0.095363	-361.436974	-361.429514	-361.42857	-361.47078	25.468
C         -0.03580        1.48220        0.01040
C          0.00170        0.02840        0.00270
C          0.03750       -1.17700       -0.00370
C          0.05430       -2.58840       -0.01110
C          1.12160       -3.44300       -0.02190
O          0.71210       -4.71480       -0.02590
N         -0.68160       -4.74610       -0.01780
C         -1.05580       -3.49490       -0.00920
H          0.97610        1.90160        0.00260
H         -0.56400        1.87110       -0.86720
H         -0.54660        1.86220        0.90210
H          2.18780       -3.28130       -0.02740
H         -2.10850       -3.25180       -0.00170
