15
gdb 16007	4.06138	1.97057	1.5723	2.9163	61.4	-0.2509	0.022	0.2729	809.1867	0.120329	-399.783398	-399.77678	-399.775836	-399.814282	24.884
C          0.05930        1.48770        0.01510
O          1.22450        0.66150       -0.00020
C         -0.06470        0.02810        0.00480
C         -0.39600       -0.72690        1.26650
O          0.12760       -2.06280        1.22020
C          0.13290       -2.65820        0.00140
N         -0.12220       -2.17510       -1.13770
C         -0.43260       -0.75100       -1.23980
H         -0.11180        2.04380        0.93690
H         -0.13500        2.04550       -0.90060
H          0.05270       -0.25050        2.14010
H         -1.48400       -0.78420        1.40480
H          0.41510       -3.70370        0.10990
H         -1.50380       -0.64040       -1.45810
H          0.10980       -0.33710       -2.09590
