20
gdb 14511	3.47218	1.77724	1.4716	1.4535	74.78	-0.2579	0.0701	0.328	935.3847	0.177886	-348.940845	-348.932992	-348.932048	-348.972738	30.938
C         -0.12320        1.56440       -0.04150
C         -0.01760        0.03420       -0.04270
C         -1.40370       -0.50930       -0.42190
O         -2.38480       -0.22700        0.57330
C          1.24660       -0.65850       -0.68260
C          2.08790       -0.12430        0.51390
C          0.76750       -0.67220        1.13540
C          0.97490       -1.90790        0.21110
H         -0.20670        1.93950       -1.06860
H         -1.03500        1.85460        0.48780
H          0.71470        2.07710        0.43080
H         -1.75200        0.00840       -1.32290
H         -1.39460       -1.57860       -0.65830
H         -2.12590       -0.69590        1.37310
H          1.52960       -0.65300       -1.73750
H          2.98920       -0.69610        0.74900
H          2.28710        0.94400        0.56950
H          0.50110       -0.67980        2.19550
H          0.11970       -2.54210       -0.01570
H          1.85150       -2.52010        0.43710
