15
gdb 17738	6.39656	1.67793	1.61476	1.9375	64.66	-0.2316	0.0752	0.3068	802.7434	0.119432	-362.523887	-362.518026	-362.517082	-362.553634	23.907
C          0.02510        1.57510       -0.00470
N          1.28140        0.77210        0.04420
C         -0.00660        0.10560        0.00560
C         -0.52760       -0.94910        0.97490
C         -1.72470       -1.28440        0.02430
O         -1.46930       -2.71920        0.00330
C         -0.14900       -2.10480       -0.01400
C         -0.56480       -0.92910       -0.96560
H         -0.18110        2.14360        0.89830
H         -0.22310        2.09150       -0.92900
H          1.72100        0.76240       -0.87370
H         -0.51810       -0.98430        2.06260
H         -2.75430       -0.93000        0.04450
H          0.73210       -2.74420       -0.03630
H         -0.60170       -0.94300       -2.05460
