17
gdb 14934	4.51687	1.45653	1.14164	5.9331	75.95	-0.2057	-0.0169	0.1888	1020.5233	0.144498	-363.902675	-363.895209	-363.894265	-363.934459	27.9
O         -0.17260       -0.04300       -0.02090
C         -0.06020        1.16990       -0.01800
C          1.19170        1.89240        0.01090
C          1.16850        3.25070       -0.01660
N          2.28000        4.02710       -0.02020
C          3.60010        3.43470        0.16130
C          3.64060        2.04740       -0.49210
C          2.50720        1.15190        0.03410
H         -0.96560        1.82420       -0.03820
H          0.22350        3.78640       -0.06130
H          2.18020        5.02150        0.08500
H          4.34420        4.09930       -0.28850
H          3.83910        3.34950        1.23240
H          3.53920        2.16930       -1.57650
H          4.61810        1.59270       -0.30600
H          2.73670        0.81050        1.05260
H          2.41800        0.24220       -0.56770
