17
gdb 12250	3.6215	1.50501	1.14548	2.2326	66.16	-0.244	0.0324	0.2764	1028.9426	0.141314	-401.016758	-401.008002	-401.007058	-401.050454	30.496
C         -0.08980        1.43730        0.07630
N         -0.03900        0.00730       -0.09760
C         -1.06880       -1.04490       -0.02170
C         -2.04220       -1.09170       -1.19130
O         -2.94090        0.00680       -1.19400
C          0.09320       -2.08110       -0.03150
C          1.03270       -0.85430       -0.04670
O          2.21880       -0.65660       -0.00550
H          0.93160        1.78480        0.25210
H         -0.47760        1.95710       -0.80910
H         -0.71290        1.70860        0.93670
H         -1.63080       -1.00860        0.92020
H         -1.47990       -1.15940       -2.13510
H         -2.65980       -1.99300       -1.10630
H         -2.46680        0.77890       -1.51580
H          0.18040       -2.70160        0.86150
H          0.15260       -2.71000       -0.92280
