15
gdb 15925	3.57712	1.89612	1.53218	3.1355	65.39	-0.2678	0.0069	0.2747	840.2391	0.119938	-362.641034	-362.634183	-362.633239	-362.67235	25.461
N          0.05900       -1.15030       -0.25510
C          0.02820       -0.00190       -0.11750
C         -0.00620        1.42830        0.04610
C         -0.52780        2.30220       -1.14180
C          0.76550        3.17160       -1.08160
C          1.25360        2.36570        0.13790
O          0.79480        2.90710        1.38730
C         -0.32970        2.00630        1.44380
H         -0.63840        1.73820       -2.06840
H         -1.46880        2.81430       -0.92950
H          1.40240        3.05000       -1.96110
H          0.63350        4.23540       -0.87740
H          2.28740        2.01630        0.18130
H         -1.28920        2.52890        1.53270
H         -0.22650        1.28200        2.25950
