20
gdb 5837	2.66617	1.58531	1.31996	2.9796	71.2	-0.2435	-0.0162	0.2273	1044.3805	0.172547	-386.157576	-386.147421	-386.146477	-386.192267	36.723
C          0.09160        1.56120       -0.19880
C          0.03410        0.03980        0.02530
C          0.56870       -0.66940       -1.20900
O         -0.10450       -1.33570       -1.95250
C          0.77720       -0.47020        1.29760
C          2.19950        0.08070        1.43510
C         -0.03980       -0.16130        2.55910
O          0.94830       -1.88990        1.17300
H          1.10510        1.89380       -0.44420
H         -0.56420        1.85020       -1.02520
H         -0.23410        2.10630        0.69160
H         -1.01620       -0.26680        0.10870
H          1.65040       -0.50360       -1.41420
H          2.19370        1.15990        1.60520
H          2.68740       -0.40000        2.28730
H          2.79980       -0.13050        0.54650
H         -1.03690       -0.61170        2.49520
H          0.46520       -0.57430        3.43690
H         -0.16820        0.91470        2.71160
H          0.07930       -2.28960        1.05150
