17
gdb 1818	4.05904	2.15603	1.98902	1.5465	59.77	-0.262	0.0839	0.3459	748.4251	0.146283	-346.839595	-346.831766	-346.830822	-346.870906	29.424
C         -0.09590        1.47480       -0.11090
C          0.04110       -0.04730        0.05890
C          0.75100       -0.40200        1.36550
O         -1.24760       -0.64820        0.11270
C          0.80800       -0.61770       -1.13360
C          0.58360       -1.98210       -1.61690
O          0.00680       -0.85370       -2.29850
H          0.88140        1.96930       -0.10730
H         -0.59100        1.70960       -1.05890
H         -0.69770        1.88570        0.70400
H          0.19630        0.00820        2.21420
H          0.80950       -1.48690        1.48590
H          1.76490        0.00930        1.38600
H         -1.58720       -0.62240       -0.79270
H          1.76880       -0.14540       -1.34220
H          1.36880       -2.49700       -2.16690
H         -0.13110       -2.61390       -1.09620
