17
gdb 20536	4.45056	1.4773	1.22208	4.9124	69.42	-0.2494	0.0033	0.2527	1005.2965	0.143443	-360.053494	-360.045669	-360.044725	-360.08634	28.544
C          0.19230        1.27220       -0.48130
C          0.03920       -0.12130        0.16180
C          0.61740       -0.13890        1.58330
C         -1.39380       -0.57120        0.15320
C         -2.34180       -0.75560        1.13600
N         -3.51180       -1.16480        0.56690
N         -3.35160       -1.24900       -0.72000
N         -2.07590       -0.89100       -0.97730
H          1.24610        1.56610       -0.51000
H         -0.19030        1.29110       -1.50650
H         -0.35820        2.02390        0.09330
H          0.61680       -0.83350       -0.44480
H          0.09260        0.57440        2.22760
H          0.53460       -1.13080        2.03600
H          1.67410        0.14290        1.56630
H         -2.25180       -0.62390        2.20150
H         -1.74890       -0.89870       -1.93040
