18
gdb 12512	3.58234	1.78843	1.2748	1.1674	77.83	-0.2147	-0.0219	0.1928	980.0323	0.154615	-347.808256	-347.800646	-347.799702	-347.840049	28.963
C          0.00870        1.56860       -0.21030
C         -0.03310        0.07510        0.01070
C         -1.20180       -0.57690        0.11030
C         -1.32870       -2.06070        0.31660
O         -0.56890       -2.82320       -0.61870
C          0.75900       -3.06590       -0.23300
C          1.60870       -1.86960        0.08350
C          1.27840       -0.57160        0.14450
H          0.56110        2.06910        0.59490
H          0.52570        1.81640       -1.14550
H         -0.99480        1.99830       -0.25350
H         -2.12790       -0.01480        0.01900
H         -1.03830       -2.33610        1.34410
H         -2.37000       -2.36870        0.18030
H          0.80510       -3.76520        0.62430
H          1.20990       -3.60170       -1.07990
H          2.65200       -2.13040        0.25950
H          2.09590        0.12160        0.33880
