14
gdb 16322	3.30541	2.04591	1.45628	3.857	57.75	-0.2616	-0.0039	0.2577	847.5663	0.105714	-419.651022	-419.643687	-419.642742	-419.683009	26.321
C         -0.30450        1.34520       -0.03160
O          0.12710       -0.00800        0.11630
C          0.71640       -0.51360       -1.00100
C         -0.06550       -1.02520       -2.23090
C          0.85580       -1.92830       -1.48630
O          2.21640       -1.67390       -1.94120
C          2.17640       -0.38890       -1.40310
O          3.06390        0.39290       -1.31660
H          0.54320        2.00760       -0.24070
H         -1.04310        1.43660       -0.83860
H         -0.76340        1.62890        0.91660
H         -1.12340       -1.15340       -2.01820
H          0.18490       -0.71360       -3.23980
H          0.65460       -2.87860       -1.01440
