18
gdb 13269	7.56852	0.7472	0.73258	1.993	77.88	-0.2461	0.0462	0.2923	1587.527	0.153091	-347.758078	-347.749176	-347.748232	-347.793529	30.49
C         -0.47710        1.53150       -0.11430
C          0.26960        0.21110        0.14870
C          0.93750       -0.31730       -1.03640
C          1.48060       -0.73110       -2.02990
C          2.14390       -1.25590       -3.20410
C          3.59590       -1.79840       -3.07110
O          3.23720       -3.03150       -3.72110
C          1.83530       -2.71080       -3.66000
H          0.21260        2.30520       -0.46230
H         -1.24620        1.39710       -0.87970
H         -0.95980        1.88580        0.80130
H          1.00970        0.36120        0.94540
H         -0.43490       -0.53800        0.53290
H          2.06060       -0.55570       -4.04040
H          4.37500       -1.25350       -3.61490
H          3.91160       -1.95310       -2.03190
H          1.30590       -3.30400       -2.90380
H          1.34050       -2.82640       -4.63030
