18
gdb 6711	5.98698	0.80225	0.73685	1.658	71.2	-0.2596	0.0294	0.289	1504.7286	0.14985	-384.888575	-384.87874	-384.877796	-384.923821	34.362
C          0.17150        0.42260       -0.80290
C          0.05050       -0.08900        0.62880
O          0.22420        0.94390        1.59200
C         -1.28020       -0.80090        0.88630
O         -1.37990       -1.91020        0.01720
C         -2.57700       -2.64000        0.19970
C         -2.62070       -3.76740       -0.72220
C         -2.68220       -4.70330       -1.47180
H          1.14410        0.89700       -0.95840
H          0.05390       -0.39920       -1.51320
H         -0.61140        1.16320       -1.01490
H          0.85610       -0.80470        0.82800
H         -0.35810        1.67200        1.34860
H         -1.32190       -1.11750        1.94020
H         -2.11800       -0.09840        0.71830
H         -2.65030       -3.00590        1.23810
H         -3.45360       -1.99030        0.03290
H         -2.72990       -5.53000       -2.13670
