12
gdb 4619	5.68304	1.581	1.2369	4.4606	60.53	-0.2225	-0.0608	0.1617	880.0326	0.084326	-418.526904	-418.520464	-418.51952	-418.557435	24.422
O         -0.06020        1.39410        0.01110
C          0.03170        0.03290        0.00280
C          1.18500       -0.67110       -0.00830
O          1.21500       -2.02150       -0.01620
C          0.05550       -2.80670       -0.01370
O          0.18310       -4.00200       -0.02070
C         -1.18560       -2.05110       -0.00150
C         -1.19850       -0.69900        0.00630
H          0.82240        1.77980        0.00770
H          2.17840       -0.23620       -0.01190
H         -2.09450       -2.63870        0.00100
H         -2.12760       -0.13830        0.01530
