15
gdb 4845	5.03486	1.41963	1.17847	2.6589	64.87	-0.2012	0.0295	0.2307	1006.265	0.120324	-396.005013	-395.997274	-395.99633	-396.037327	28.177
C          0.32640        1.26600        0.27870
N         -0.30440        0.04820       -0.24090
C          0.45040       -0.72250       -1.10380
C          0.99040       -1.95800       -1.04290
N          1.69930       -2.25040       -2.20510
C          1.55190       -1.17840       -2.92460
N          1.99530       -0.97150       -4.20880
O          0.82590       -0.19490       -2.36530
H          1.24630        0.99140        0.80240
H          0.57890        2.00200       -0.49850
H         -0.34940        1.73720        0.99810
H         -1.23140        0.24250       -0.60320
H          0.91530       -2.66270       -0.22990
H          2.72830       -1.61380       -4.47210
H          2.20370       -0.00980       -4.43420
