16
gdb 10277	2.4398	1.86636	1.12834	3.0178	67.	-0.2518	-0.0327	0.2191	1034.5803	0.127205	-383.723284	-383.714219	-383.713274	-383.757452	32.217
C         -0.53610        1.32380        0.11710
C          0.14820       -0.02080        0.05740
O          0.77730       -0.46320        0.99440
C          0.05360       -0.81510       -1.26700
C          0.52650       -2.28150       -1.08040
O          1.88170       -2.35750       -0.71730
C         -1.27470       -0.75010       -1.86240
C         -2.37760       -0.74930       -2.34120
H         -0.27450        1.92850       -0.75770
H         -1.62120        1.18410        0.08540
H         -0.25360        1.84050        1.03470
H          0.77410       -0.32850       -1.94380
H         -0.13190       -2.76950       -0.34690
H          0.41230       -2.80700       -2.03220
H          1.93710       -1.94140        0.15330
H         -3.34730       -0.73980       -2.77450
