17
gdb 20004	4.00368	1.32566	1.08816	2.8147	71.76	-0.2399	-0.0286	0.2112	1087.8598	0.141037	-363.819263	-363.811435	-363.810491	-363.852049	28.771
O         -0.05030       -0.02050       -0.56570
C         -0.03170        1.09340       -0.10200
C          1.21170        1.88380        0.07940
C          1.14290        3.37330       -0.14710
N          1.37020        2.85850        1.17630
C          0.34160        3.02420        2.17300
C          0.52230        2.28160        3.46690
C          0.73980        3.77510        3.41590
H         -0.97020        1.60260        0.20920
H          2.11820        1.34640       -0.18520
H          1.97860        3.86590       -0.63670
H          0.16310        3.79410       -0.37550
H         -0.67860        3.17620        1.82080
H         -0.36080        1.89700        3.96410
H          1.40180        1.65360        3.54840
H          1.76260        4.13020        3.45920
H          0.00540        4.42580        3.87700
