12
gdb 21686	3.7811	1.90991	1.27027	2.825	64.94	-0.2347	-0.022	0.2127	870.4951	0.084009	-377.48585	-377.478892	-377.477948	-377.516809	26.304
N          0.07750        1.34560        0.14820
C          0.03610       -0.02230        0.04400
N         -1.09130       -0.69660        0.02490
O         -0.71030       -2.05170       -0.01420
C          0.61660       -2.13290       -0.02840
C          1.18570       -0.89360        0.00470
C          2.54030       -0.50760       -0.00340
C          3.68260       -0.12470       -0.01820
H          0.90770        1.77410       -0.23280
H         -0.77850        1.81630       -0.10580
H          1.04050       -3.12470       -0.06300
H          4.69540        0.19450       -0.02060
