15
gdb 16687	4.4406	1.77322	1.65328	3.3789	62.29	-0.2504	0.0274	0.2778	806.9553	0.120611	-399.780786	-399.774408	-399.773464	-399.811032	25.423
O         -0.00460        1.37970       -0.12780
C          0.02330       -0.01850       -0.03290
C          0.01960       -0.62780        1.40480
C         -1.46180       -0.21030        1.50770
C         -1.42550       -0.62160       -0.00860
C         -1.05650       -2.07420        0.13480
N         -1.50730       -3.08800       -0.45760
O         -0.06110       -2.04820        1.10010
H          0.89540        1.70720       -0.03070
H          0.73380       -0.47480       -0.73370
H          0.78070       -0.45540        2.16360
H         -2.09760       -0.78790        2.18090
H         -1.59520        0.86140        1.64030
H         -2.18880       -0.36140       -0.73540
H         -1.03840       -3.93480       -0.12980
