19
gdb 17453	3.38091	2.12564	1.66608	1.3386	75.04	-0.2317	0.0867	0.3184	858.8835	0.165647	-327.863457	-327.855942	-327.854998	-327.894615	29.679
C         -0.16230        1.46680       -0.10750
N          0.10550        0.04450        0.03850
C          1.42680       -0.51100       -0.16380
C          2.55930        0.33270        0.39210
C          3.19650       -0.40380        1.54390
C          1.89200        0.31950        1.77990
C          1.75000        1.40880        2.80940
C          0.76260       -0.52450        1.20100
H          0.66030        2.12300        0.20600
H         -0.37950        1.67220       -1.16100
H         -1.05300        1.72260        0.47560
H          1.53880       -1.33100       -0.86580
H          3.05180        1.16320       -0.10080
H          3.23440       -1.49040        1.53580
H          4.07600        0.06490        1.97920
H          2.66840        2.00020        2.88750
H          0.92890        2.09280        2.57450
H          1.55060        0.98410        3.80060
H          0.27130       -1.35180        1.70450
