17
gdb 7970	3.88544	1.65352	1.18563	4.4373	72.86	-0.2322	-0.0208	0.2114	1013.1957	0.1422	-363.922029	-363.913821	-363.912877	-363.954641	29.349
C         -0.06130        1.39130        0.02020
N         -0.01680       -0.04790        0.02140
C         -1.17980       -0.89920        0.00290
C         -0.59400       -2.29480        0.01290
C         -1.45910       -3.51100       -0.00090
C          0.73950       -2.20410        0.03430
C          1.15970       -0.77540        0.04060
O          2.28240       -0.30930        0.05850
H          0.97170        1.74500        0.03750
H         -0.55770        1.78170       -0.87780
H         -0.58760        1.78210        0.90080
H         -1.83000       -0.73000        0.87610
H         -1.80140       -0.73060       -0.89090
H         -2.09850       -3.53240       -0.89210
H         -0.86040       -4.42470        0.01110
H         -2.13020       -3.52990        0.86670
H          1.45820       -3.01160        0.04620
