16
gdb 3555	5.05814	2.9732	2.64265	0.7476	63.57	-0.2047	0.0933	0.2979	600.1997	0.138147	-288.563768	-288.558038	-288.557094	-288.592862	23.084
C         -0.04260        1.52810        0.02360
N          0.09480        0.07910       -0.01630
C          0.78650       -0.54300       -1.13850
C          2.31210       -0.59490       -0.84010
C          2.49260        0.01930        0.54560
C          1.09190       -0.59290        0.86690
C          1.34820       -1.63360       -0.29190
H          0.88080        2.08920       -0.18890
H         -0.79440        1.83060       -0.71350
H         -0.40800        1.82600        1.01240
H          0.38230       -0.57630       -2.14320
H          3.04690       -0.72020       -1.62540
H          3.26980       -0.50630        1.10670
H          2.63190        1.10010        0.65530
H          0.78020       -0.79320        1.89120
H          1.29670       -2.71020       -0.35390
