16
gdb 12648	3.191	1.94974	1.27281	4.4675	64.97	-0.2299	-0.0869	0.143	936.7191	0.129787	-383.785778	-383.778048	-383.777103	-383.818036	28.278
C         -0.35740        1.50530       -0.00240
C          0.10230        0.05090       -0.01420
C          0.93380       -0.40620       -1.23670
C          1.66930       -1.68410       -0.77890
C          1.94220       -1.46140        0.70130
O          2.74110       -2.01390        1.40690
C          0.97610       -0.32960        1.17450
O          0.96880        0.14390        2.27890
H          0.49590        2.18310       -0.10870
H         -1.05440        1.70550       -0.82140
H         -0.85180        1.74000        0.94360
H         -0.77900       -0.60830        0.05810
H          0.31600       -0.56800       -2.12260
H          1.66340        0.37260       -1.48870
H          1.01550       -2.56260       -0.86870
H          2.58720       -1.90860       -1.32610
