12
gdb 2258	4.11833	3.02182	2.12585	3.469	50.79	-0.2401	0.0034	0.2435	609.1441	0.090112	-360.492675	-360.486607	-360.485663	-360.522299	22.845
O         -0.12290        1.45260        0.00410
C         -0.03410        0.08640        0.07430
C         -0.24980       -0.83640       -1.13840
C         -1.15760       -0.92390        0.05650
N         -0.51330       -1.65010        1.15760
C          0.58660       -0.76390        1.18920
O          1.58940       -0.75140        1.84200
H          0.69660        1.79300       -0.37200
H         -0.64760       -0.30790       -2.00070
H          0.43940       -1.64510       -1.36450
H         -2.22400       -0.74530        0.05380
H         -0.39020       -2.65720        1.15470
