16
gdb 16395	3.29553	2.32316	1.82418	2.3545	59.05	-0.2497	0.0669	0.3166	759.9651	0.132371	-420.846051	-420.839625	-420.838681	-420.876335	26.035
O          0.03850        1.38220       -0.04000
C          0.03110       -0.03210        0.00760
C         -1.38560       -0.59110       -0.22420
C         -1.17530       -2.03300       -0.72150
C         -0.58910       -1.22170       -1.89770
O         -1.58520       -0.17090       -1.61420
C          0.70530       -0.64420       -1.28860
O          1.33000        0.32070       -2.08630
H         -0.61080        1.61070       -0.72320
H          0.50230       -0.33130        0.94510
H         -2.17950       -0.28040        0.45530
H         -0.51910       -2.70220       -0.15890
H         -2.11780       -2.51740       -0.97570
H         -0.57970       -1.55160       -2.93500
H          1.41450       -1.44620       -1.04510
H          1.27960        1.14870       -1.58590
