17
gdb 20264	4.00514	2.79735	2.47305	1.7078	69.49	-0.2318	0.1057	0.3375	657.5489	0.147085	-326.701159	-326.696189	-326.695245	-326.729804	22.167
C         -0.04730        1.55420        0.06880
C          1.50400        1.41870        0.00150
C          1.79650        0.60920        1.26970
C          2.08490       -0.80810        0.91810
C          2.25910       -0.91700       -0.58290
C          1.28180        0.18640       -0.94920
C          0.02970        0.01360       -0.03590
N          0.69060       -0.39460        1.24990
H         -0.49280        1.98010        0.97120
H         -0.47310        2.01670       -0.82530
H          2.16370        2.24900       -0.24830
H          2.05170        1.06870        2.21780
H          2.55270       -1.49810        1.61150
H          3.28750       -0.71030       -0.89840
H          1.96230       -1.89590       -0.97550
H          1.10090        0.41550       -1.99720
H         -0.82280       -0.61550       -0.28990
