15
gdb 19777	3.21677	2.55993	1.73723	3.548	64.18	-0.2276	-0.0245	0.2031	755.7646	0.121137	-362.640975	-362.634953	-362.634009	-362.670938	24.325
O          0.01240        0.00710       -0.03640
C         -0.01410        1.21240        0.00530
C         -1.25450        2.06960       -0.01490
C         -1.45150        3.16560        1.02540
C         -0.81670        3.50000       -0.28850
C          0.71150        3.49950       -0.32920
N          1.33740        3.12930        0.95060
C          1.20430        2.11180       -0.12960
H         -2.13590        1.62010       -0.45590
H         -2.48090        3.47120        1.17610
H         -0.82710        3.16880        1.90840
H         -1.33970        4.11920       -1.00680
H          1.21840        4.19780       -0.98520
H          2.30380        3.44780        0.96560
H          2.09580        1.69750       -0.58630
