19
gdb 13687	4.68134	0.93396	0.84057	2.2843	73.36	-0.2303	-0.0233	0.207	1361.7382	0.163448	-365.036974	-365.027947	-365.027003	-365.071655	31.771
C         -0.30740        1.36360       -0.00820
N          0.04930       -0.04480        0.06700
C          1.42880       -0.40880       -0.23230
C          0.89560       -0.54190        1.15410
C          1.42110        0.32000        2.28550
C          0.39370        0.50120        3.42080
C          1.00090        1.19280        4.61930
O          0.58400        2.20340        5.12270
H          0.48960        2.06110        0.29400
H         -0.57580        1.59690       -1.04350
H         -1.18620        1.55290        0.61660
H          1.57280       -1.28040       -0.86600
H          2.14040        0.39920       -0.40650
H          0.59690       -1.53790        1.48410
H          2.32240       -0.16140        2.68840
H          1.73970        1.29980        1.91650
H         -0.48080        1.06850        3.09160
H          0.05130       -0.49100        3.75020
H          1.91020        0.68600        5.02370
