14
gdb 11812	3.60578	1.86336	1.40342	3.2386	58.2	-0.2632	-0.0035	0.2597	864.7367	0.105874	-419.673137	-419.66576	-419.664816	-419.704859	26.973
O          0.03430        1.30690       -0.29260
C          0.06380       -0.07350       -0.06060
C          0.08860       -0.55210        1.41070
O          0.79330       -0.45010        2.36170
O         -1.11150       -1.21290        1.30720
C         -1.30080       -0.74210       -0.05580
C         -2.60600       -0.22730       -0.53440
C         -2.03470       -1.53700       -1.07160
H          0.90320        1.66630       -0.08190
H          0.81200       -0.59280       -0.67580
H         -3.44600       -0.29330        0.14780
H         -2.59240        0.65190       -1.16890
H         -1.64640       -1.56420       -2.08440
H         -2.50170       -2.45670       -0.73700
