18
gdb 8150	3.78527	1.75091	1.56039	2.6733	67.25	-0.2419	0.0778	0.3197	893.8528	0.153396	-384.939491	-384.93173	-384.930786	-384.971118	29.905
C          0.24770        1.41160       -0.26270
C         -0.15260        0.01840        0.13930
C         -1.61860       -0.38950        0.16090
C         -1.67250       -1.73790        0.91420
O         -1.73600       -2.76720       -0.06170
C         -0.37510       -1.78910        1.77170
C          0.57880       -0.82800        1.09540
O          0.70310       -1.04480       -0.31540
H          1.32960        1.54050       -0.17780
H         -0.03690        1.61100       -1.30170
H         -0.24640        2.15850        0.36810
H         -2.20200        0.37530        0.68650
H         -2.03920       -0.50610       -0.84180
H         -2.55970       -1.78630        1.56200
H         -1.67580       -3.61340        0.39250
H         -0.57060       -1.45100        2.79700
H          0.02200       -2.80870        1.83040
H          1.48510       -0.49740        1.59980
