24
gdb 10779	2.47935	1.8545	1.40227	0.1352	84.15	-0.2694	0.07	0.3394	1060.8972	0.222769	-314.273009	-314.263404	-314.26246	-314.306211	36.952
C          0.05070        1.64610       -0.23790
C          0.17460        0.12660       -0.12960
C          1.11160       -0.58050       -1.16650
C          1.44720        0.09540       -2.49010
C          2.20580       -0.74100       -0.05760
C          3.39430        0.21800       -0.11930
C          1.10020       -0.42660        1.00630
C          1.42260        0.42930        2.22470
H          1.01930        2.15370       -0.26870
H         -0.49400        1.92730       -1.14560
H         -0.50320        2.05200        0.61550
H         -0.83840       -0.29030       -0.10540
H          0.69620       -1.57090       -1.38490
H          1.86920        1.09540       -2.35520
H          2.17560       -0.49570       -3.05680
H          0.55240        0.19710       -3.11460
H          2.60220       -1.75980        0.01660
H          3.09450        1.26730       -0.19520
H          4.01810        0.12090        0.77590
H          4.02730       -0.00390       -0.98530
H          0.68190       -1.37670        1.35770
H          1.84700        1.40050        1.95470
H          0.52140        0.61760        2.81930
H          2.14440       -0.07560        2.87670
