17
gdb 6038	3.07903	1.53458	1.42002	2.9983	60.41	-0.2389	0.0341	0.273	958.4544	0.139951	-438.170758	-438.161302	-438.160358	-438.2046	34.469
C         -0.12750        1.66320       -0.06630
C          0.02990        0.13680       -0.04150
O          0.78690       -0.27500        1.09470
C         -1.33700       -0.56770        0.00100
O         -1.89060       -0.28060        1.28390
C          0.74370       -0.32850       -1.32310
N          1.87750       -1.03720       -1.11360
O          0.28230       -0.07310       -2.42200
H          0.85120        2.13580        0.05040
H         -0.56250        1.97920       -1.01690
H         -0.77360        1.98550        0.75420
H          0.15250       -0.32900        1.82170
H         -1.97030       -0.20040       -0.81430
H         -1.19020       -1.64940       -0.12610
H         -2.64660       -0.85560        1.42890
H          2.18900       -1.20960       -0.17290
H          2.39760       -1.37190       -1.90680
