13
gdb 3791	7.79974	2.01883	1.63349	1.5447	55.72	-0.2067	0.0068	0.2135	726.3864	0.104677	-336.811744	-336.805321	-336.804376	-336.842191	22.741
C          0.06610        1.39790       -0.08800
N         -0.17820       -0.01320        0.15180
C          0.56540       -0.66030        1.11800
N          0.72010       -1.98800        1.11650
N          1.43880       -2.20420        2.22290
N          1.77020       -1.14490        2.93300
C          1.22690       -0.13350        2.25120
H          1.10940        1.62870       -0.35430
H         -0.58290        1.73630       -0.89860
H         -0.19260        1.97950        0.80300
H         -0.29460       -0.57110       -0.68140
H          1.71650       -3.13260        2.49260
H          1.32970        0.88370        2.59000
