20
gdb 5834	2.98128	1.5376	1.3406	2.2296	71.34	-0.2704	-0.0383	0.2321	1028.8909	0.17337	-386.159671	-386.150013	-386.149069	-386.193412	35.788
C         -0.02870        1.53230        0.05200
C         -0.01250       -0.00700        0.05760
C          0.69570       -0.51280        1.32590
C         -1.45990       -0.52750        0.00300
C          0.78150       -0.46960       -1.20730
O          2.07110        0.08230       -1.22990
C          0.87990       -1.97730       -1.33700
O          1.94940       -2.53670       -1.41140
H          0.98750        1.93180        0.04080
H         -0.55570        1.91870       -0.82770
H         -0.54220        1.90930        0.94300
H          0.20330       -0.12230        2.22220
H          0.68200       -1.60680        1.39080
H          1.73830       -0.18520        1.33730
H         -1.94970       -0.25580       -0.93920
H         -1.52270       -1.61420        0.11790
H         -2.04470       -0.08420        0.81540
H          0.20700       -0.12890       -2.09010
H          2.67520       -0.67240       -1.31800
H         -0.06870       -2.54490       -1.38290
