18
gdb 5532	3.01879	1.90309	1.2655	1.2419	75.41	-0.1833	0.0552	0.2385	993.2072	0.154836	-344.01517	-344.006619	-344.005675	-344.048498	31.095
C          0.22570        1.05020       -0.45020
N         -0.44760        0.21760        0.55480
C          0.38690       -0.64700        1.29120
C          0.79930       -1.95270        1.09740
C          0.43820       -2.83800       -0.05720
C          1.62730       -2.28930        2.21210
C          1.70470       -1.19010        3.03250
N          0.94690       -0.19720        2.46650
H          0.75850        0.47400       -1.22220
H         -0.51390        1.69240       -0.93830
H          0.95570        1.69610        0.04620
H         -1.20510       -0.30140        0.12890
H          1.32760       -3.21640       -0.57450
H         -0.14230       -3.71340        0.25930
H         -0.16280       -2.29970       -0.79770
H          2.11830       -3.23680        2.37910
H          2.23090       -1.03120        3.95980
H          0.74260        0.70170        2.86710
