17
gdb 6317	3.52972	1.19128	1.00925	2.3576	65.39	-0.2511	-0.0203	0.2308	1166.5127	0.139562	-401.052176	-401.042738	-401.041794	-401.087424	32.578
C         -0.24370        1.70320        0.23140
C          0.00060        0.21140       -0.05470
C          0.76800       -0.50560        1.05460
C          2.25510       -0.15850        1.04700
N          2.93080       -0.53010        2.17340
O          2.80360        0.40300        0.11650
C         -1.30110       -0.48630       -0.38550
O         -1.67100       -1.53620        0.07740
H          0.71260        2.22310        0.31790
H         -0.81190        2.17380       -0.57780
H         -0.80430        1.84230        1.16250
H          0.61010        0.16060       -0.96990
H          0.33590       -0.27770        2.03640
H          0.66080       -1.58960        0.92770
H          2.50290       -1.09500        2.88630
H          3.93270       -0.42940        2.17780
H         -1.92580        0.05750       -1.13210
