22
gdb 9543	3.04621	1.49233	1.32785	1.3737	77.88	-0.2612	0.0738	0.3349	1069.4504	0.199047	-350.198271	-350.188868	-350.187924	-350.231712	35.454
C         -0.08480        1.56580       -0.09890
C          0.04940        0.05470        0.02520
C          1.04710       -0.69670       -0.89770
C          1.39600       -1.63330        0.28780
C          0.76110       -0.59650        1.26720
C          1.81590        0.29260        1.92940
C         -0.19210       -1.16890        2.30700
O          0.55520       -1.95110        3.23020
H          0.88500        2.06740       -0.02060
H         -0.51590        1.83380       -1.07030
H         -0.73910        1.98100        0.67610
H         -0.94410       -0.40020       -0.07860
H          0.64410       -1.15340       -1.80520
H          1.89110       -0.06060       -1.18320
H          0.82910       -2.56830        0.26070
H          2.44970       -1.87520        0.44600
H          2.54340        0.66820        1.20300
H          1.35840        1.15830        2.42220
H          2.35640       -0.27910        2.68810
H         -0.71930       -0.34580        2.81990
H         -0.95490       -1.78390        1.80230
H         -0.05030       -2.29930        3.89060
