14
gdb 4301	3.91479	1.8477	1.26506	4.8961	67.78	-0.234	-0.0516	0.1824	910.1514	0.107749	-382.60904	-382.602157	-382.601213	-382.64018	25.646
C         -0.02470        1.53040        0.03480
C          0.00260        0.02870       -0.00650
C         -0.02830       -0.66530       -1.17510
C         -0.00230       -2.11080       -1.22940
O         -0.02550       -2.81460       -2.20190
O          0.05780       -2.75170        0.03110
C          0.08760       -2.05440        1.17360
C          0.06350       -0.70890        1.22610
H          0.86870        1.91870        0.53720
H         -0.07300        1.96060       -0.96750
H         -0.88950        1.88500        0.60740
H         -0.07440       -0.16800       -2.13640
H          0.13300       -2.70280        2.04150
H          0.09000       -0.20510        2.18360
