19
gdb 17610	3.99282	1.27427	1.15555	2.3964	72.93	-0.2527	-0.0232	0.2295	1123.1161	0.164569	-365.063747	-365.054743	-365.053799	-365.097781	32.175
C          0.05760        1.56220       -0.26840
C         -0.08330        0.05510        0.04110
C         -1.55080       -0.37080        0.12070
C          0.67180       -0.72980       -1.02550
O          0.11920       -1.23170       -1.98480
C          2.15700       -0.84720       -0.86310
C          2.72700       -2.22520       -1.02850
N          2.94320       -1.21160       -2.05010
H          1.10440        1.87610       -0.32290
H         -0.41790        1.80140       -1.22500
H         -0.43090        2.15300        0.51210
H          0.41320       -0.13680        1.00220
H         -2.04160       -0.23330       -0.84600
H         -1.64430       -1.42670        0.39030
H         -2.08140        0.22320        0.87090
H          2.63810       -0.16200       -0.17160
H          3.60210       -2.50120       -0.44710
H          2.02000       -3.02520       -1.22970
H          2.26970       -1.36760       -2.80210
