15
gdb 7290	4.28589	1.1884	0.98387	5.1427	62.53	-0.2878	-0.0502	0.2377	1129.9368	0.116236	-399.831989	-399.823153	-399.822208	-399.866167	30.412
C         -0.02400        1.41870        0.05550
C          0.05490       -0.08540       -0.04630
O          1.10290       -0.68010       -0.17100
C         -1.24480       -0.90660       -0.00320
O         -0.96200       -2.26050       -0.16330
C         -2.00330       -0.66800        1.32960
C         -3.27720       -1.38050        1.36430
N         -4.29650       -1.92320        1.39000
H          0.90320        1.85920       -0.31290
H         -0.87950        1.81530       -0.49930
H         -0.15070        1.71090        1.10490
H         -1.88570       -0.54720       -0.82530
H          0.00670       -2.31520       -0.22700
H         -1.37820       -1.01530        2.15950
H         -2.20130        0.39890        1.47900
