14
gdb 9102	6.27766	0.97669	0.89023	4.1705	56.51	-0.279	-0.0611	0.2179	1202.1428	0.104232	-456.833666	-456.825266	-456.824322	-456.86754	28.377
O         -0.20720        1.17430       -0.49480
C          0.04330       -0.16520       -0.18130
C          0.91930       -0.81470       -1.26390
O          0.21680       -0.86760       -2.49990
C          0.34100        0.19170       -3.33760
O         -0.25900        0.25720       -4.36520
C          0.69980       -0.28700        1.18060
O          0.96120        0.68950        1.83920
H          0.12700        1.69080        0.25640
H         -0.90060       -0.73690       -0.14000
H          1.85090       -0.24460       -1.36900
H          1.16330       -1.84920       -1.00550
H          1.05330        0.94960       -2.96780
H          0.92230       -1.31220        1.53860
