14
gdb 4938	6.86482	1.25737	1.0709	1.1072	60.05	-0.2021	0.0359	0.238	1037.4548	0.107961	-415.885142	-415.877448	-415.876504	-415.917441	27.658
N          0.01950        1.32080        0.14140
C         -0.05020       -0.04710        0.04820
N         -1.11340       -0.79080        0.02800
C         -0.60280       -2.09090        0.01090
C         -1.50840       -3.27420       -0.01120
O         -0.71080       -4.44530       -0.06600
C          0.74460       -2.05090        0.01360
O          1.12120       -0.71420        0.03930
H          0.84150        1.72990       -0.27820
H         -0.83960        1.77540       -0.12970
H         -2.14780       -3.25700        0.88640
H         -2.18280       -3.19690       -0.87960
H         -1.29740       -5.20610       -0.05130
H          1.53480       -2.77740       -0.00370
