18
gdb 17533	3.949	1.80757	1.59749	1.5003	71.94	-0.2238	0.0798	0.3036	881.2918	0.153045	-347.744089	-347.73669	-347.735746	-347.775398	29.03
C         -0.00390        1.55870       -0.00750
C          0.08200        0.05110        0.06160
C          1.35490       -0.72140       -0.10840
O          2.48440       -0.00730        0.41660
C          1.91280       -0.08900        1.73510
C          2.75040       -0.47130        2.90830
C          2.17970        0.93790        2.78290
C          0.65000       -0.74180        1.23310
H          0.93650        2.01530        0.30700
H         -0.20780        1.88450       -1.03320
H         -0.80590        1.94180        0.63210
H         -0.76420       -0.47530       -0.37860
H          1.55250       -1.48890       -0.84760
H          2.32620       -1.14010        3.65050
H          3.81350       -0.59640        2.73460
H          2.87550        1.73080        2.52980
H          1.37070        1.23590        3.44130
H          0.11410       -1.53590        1.73620
