18
gdb 16691	4.09226	1.64335	1.52009	1.3381	73.47	-0.2192	0.023	0.2422	913.4185	0.154414	-347.774684	-347.767423	-347.766479	-347.805684	28.998
C         -0.01990        1.42930        0.08390
C         -0.03720       -0.05920        0.02250
C         -0.04360       -0.90470       -1.02030
C          0.01760       -2.28540       -0.37700
C         -1.00040       -2.10190        0.79580
C          0.02400       -1.00220        1.22650
C          1.14900       -1.99230        0.69760
O          1.58440       -3.02720        1.52980
H          0.87460        1.79830        0.60220
H         -0.03380        1.86780       -0.91820
H         -0.88280        1.82100        0.63790
H         -0.03080       -0.68520       -2.07910
H          0.03630       -3.17170       -1.01100
H         -2.00870       -1.77210        0.53480
H         -1.06230       -2.95530        1.48280
H          0.05120       -0.57710        2.23060
H          2.05100       -1.51430        0.30950
H          0.82170       -3.48780        1.89460
