17
gdb 4337	3.69222	1.78347	1.22077	2.5058	78.27	-0.2434	-0.0195	0.2239	997.3598	0.143296	-326.800711	-326.792826	-326.791882	-326.833947	28.254
C          0.04860        1.52520        0.02090
C          0.00250        0.01890        0.00130
C          0.07070       -0.70330       -1.18950
C          0.02550       -2.09680       -1.17660
C          0.09730       -2.90600       -2.44610
C         -0.08960       -2.71170        0.07280
N         -0.15720       -2.05280        1.23010
C         -0.11120       -0.72120        1.18100
H          0.97760        1.90290       -0.42040
H         -0.77900        1.95840       -0.55190
H         -0.01580        1.90910        1.04260
H          0.15980       -0.17500       -2.13650
H          1.03100       -2.71840       -2.98790
H          0.04330       -3.97740       -2.23520
H         -0.72490       -2.65710       -3.12630
H         -0.12900       -3.79800        0.13620
H         -0.16780       -0.20360        2.13730
