16
gdb 9063	5.65214	0.86679	0.78632	2.9593	66.59	-0.2584	-0.0403	0.2181	1370.0051	0.128441	-379.927626	-379.918501	-379.917556	-379.96254	30.786
C          0.19460        1.39740        0.12500
C          0.00350       -0.11890        0.02750
N         -1.37330       -0.61340        0.06280
C         -2.02390       -0.51860        1.36540
C         -3.36700       -1.10500        1.31830
N         -4.43390       -1.54500        1.27770
C          0.66630       -0.70400       -1.22110
O          1.46300       -0.11950       -1.90580
H          1.25300        1.65080        0.03130
H         -0.33710        1.90430       -0.68690
H         -0.17340        1.78700        1.07810
H          0.52610       -0.60690        0.86720
H         -1.93650       -0.13730       -0.63540
H         -1.42850       -1.08190        2.09440
H         -2.12020        0.50620        1.76240
H          0.33980       -1.74330       -1.44250
