13
gdb 21085	3.83693	2.01799	1.3336	3.1613	69.09	-0.2495	-0.0338	0.2157	857.9861	0.096499	-357.636972	-357.629788	-357.628843	-357.668699	25.498
C          0.04290        1.41560       -0.01280
N          0.04700       -0.03250        0.01670
N          0.11380       -0.74710       -1.12370
C          0.09400       -1.99870       -0.68320
N          0.01920       -2.13870        0.66030
C         -0.00950       -0.87690        1.08350
C         -0.08640       -0.43270        2.42350
C         -0.15160       -0.03530        3.55730
H          0.95900        1.78060       -0.48290
H         -0.81810        1.77350       -0.58220
H         -0.01590        1.78110        1.01250
H          0.13530       -2.83730       -1.36210
H         -0.20940        0.29980        4.56380
