14
gdb 18954	6.82159	1.50944	1.46437	2.6667	63.32	-0.2393	0.0135	0.2528	843.4232	0.107927	-378.617254	-378.611177	-378.610233	-378.647665	23.211
O          0.04300        0.01960       -0.43090
C          0.02400        1.18960       -0.11790
N          1.06340        1.85850        0.47320
C          2.50640        1.61430        0.22150
C          2.60350        2.72240       -0.89840
N          3.70330        3.49590       -0.24370
C          2.89990        2.97030        0.90500
C          1.55850        3.22460        0.15440
H         -0.87980        1.82800       -0.20260
H          2.97050        0.63200        0.28100
H          2.48750        2.61730       -1.97770
H          4.58840        2.98870       -0.31940
H          3.12890        3.16100        1.95300
H          0.93680        4.11740        0.14220
