13
gdb 8645	2.50628	1.83163	1.41028	3.9843	59.18	-0.3013	-0.027	0.2742	901.1755	0.094937	-394.778771	-394.770424	-394.76948	-394.811403	29.435
N         -0.01030        1.44180        0.18180
C          0.00970       -0.02180        0.03250
C          0.76940       -0.59260        1.27660
O          0.14670       -0.18730        2.45470
C         -1.38070       -0.51260        0.02900
N         -2.47030       -0.89220        0.01290
C          0.68820       -0.47200       -1.20370
N          1.28210       -0.78000       -2.14580
H          0.90990        1.81440       -0.03800
H         -0.67160        1.86350       -0.46290
H          0.76520       -1.68440        1.24210
H          1.81260       -0.24670        1.19400
H         -0.00020        0.76600        2.37740
