17
gdb 7655	3.78346	1.6113	1.37793	5.2257	64.77	-0.2375	0.0163	0.2537	931.7338	0.142846	-401.025687	-401.017726	-401.016781	-401.058228	29.933
N          0.36820        0.96930        0.13020
C         -0.10340       -0.18090       -0.41540
O          0.56680       -0.83100       -1.21020
C         -1.49360       -0.60550        0.01540
C         -2.40230       -0.97800       -1.20250
C         -2.08030       -2.48720       -0.96950
O         -1.12390       -3.02700       -1.83600
C         -1.54570       -2.10850        0.44700
H          1.28800        1.28460       -0.13300
H         -0.16700        1.51580        0.78060
H         -1.92190        0.10610        0.72560
H         -3.44880       -0.72890       -1.00890
H         -2.10850       -0.58410       -2.17750
H         -2.93780       -3.16480       -0.98850
H         -0.36210       -2.42070       -1.81660
H         -0.59950       -2.57540        0.72810
H         -2.28120       -2.26960        1.23930
