15
gdb 16882	4.0361	2.02702	1.58342	4.9154	60.95	-0.2437	0.0462	0.2899	800.8403	0.121599	-399.83037	-399.823932	-399.822988	-399.860973	24.926
O         -0.02200       -0.03210        0.20500
C         -0.02190        1.15080       -0.01930
N         -1.16260        1.91800       -0.08620
C         -1.16780        3.35110        0.04040
C         -0.30600        4.03350        1.08410
C          0.09720        4.02880       -0.37370
C          1.16960        3.08730       -0.86910
O          1.15210        1.81860       -0.20290
H         -1.97090        1.41770        0.25210
H         -2.12440        3.78840       -0.22100
H         -0.65650        4.96710        1.50980
H          0.24550        3.39660        1.76700
H          0.02790        4.95940       -0.92800
H          1.04670        2.92590       -1.94870
H          2.17500        3.48110       -0.69710
