18
gdb 8086	3.57067	2.21287	1.78602	1.6212	66.96	-0.2412	0.0874	0.3287	803.0027	0.155083	-384.923926	-384.917153	-384.916209	-384.954277	27.633
C         -0.11480        1.51580       -0.00480
C          0.08900        0.02430       -0.10480
C          1.31160       -0.58850       -0.85420
C          1.07610       -1.81860        0.06220
C          0.52430       -0.83050        1.12690
O          0.02730       -2.60740       -0.50280
C         -1.20960       -1.92900       -0.45540
O         -1.09260       -0.54420       -0.69820
H          0.78630        2.00000        0.38270
H         -0.33890        1.93470       -0.99070
H         -0.95230        1.74760        0.66060
H          1.20070       -0.74680       -1.92820
H          2.24580       -0.06720       -0.62710
H          1.89420       -2.49720        0.30610
H          1.34200       -0.34290        1.66190
H         -0.22560       -1.16830        1.84460
H         -1.84530       -2.34810       -1.24000
H         -1.68620       -2.09620        0.52390
