18
gdb 16948	3.69955	2.01005	1.84722	1.3496	72.31	-0.2308	0.0183	0.2491	821.0543	0.156105	-347.809943	-347.803296	-347.802352	-347.840405	26.786
C         -0.01760        1.50320        0.04740
C         -0.08160        0.01450       -0.01990
C         -0.08020       -0.80250       -1.08270
C          0.02370       -2.23010       -0.57140
C          1.43920       -2.33760        0.07400
O          1.37040       -1.45390        1.20110
C          0.01710       -0.90950        1.19360
C         -0.80850       -2.11710        0.73430
H          0.91110        1.83010        0.53220
H         -0.05640        1.95300       -0.94890
H         -0.84290        1.91670        0.64070
H         -0.02570       -0.51520       -2.12610
H         -0.22130       -3.03110       -1.26800
H          1.65230       -3.35700        0.42140
H          2.23700       -2.02070       -0.60740
H         -0.17130       -0.47770        2.17620
H         -1.85860       -1.88810        0.54810
H         -0.71290       -2.97570        1.40550
