19
gdb 13776	3.04834	1.47263	1.35181	3.7956	72.9	-0.247	0.0089	0.256	1029.3977	0.164138	-365.0611	-365.0522	-365.051255	-365.094649	32.1
C         -0.19990        1.45280        0.39680
C         -0.03500       -0.05000        0.11100
C          0.83360       -0.72870        1.17830
C         -1.39630       -0.69330       -0.13210
C         -1.70870       -2.14120        0.14950
N         -2.31020       -1.08870        0.92660
C         -2.25390       -0.93610        2.29310
O         -2.28130       -1.84110        3.09380
H          0.77310        1.95340        0.41210
H         -0.81740        1.94010       -0.36470
H         -0.67490        1.62110        1.36960
H          0.49040       -0.14330       -0.85060
H          0.35870       -0.72590        2.16410
H          1.06590       -1.76510        0.91930
H          1.78350       -0.19390        1.27380
H         -1.91460       -0.25180       -0.98420
H         -2.37270       -2.68540       -0.51740
H         -0.95980       -2.74950        0.64800
H         -2.26650        0.13100        2.58690
