17
gdb 14417	3.15571	2.24606	1.74778	2.3173	67.71	-0.2293	0.0686	0.2979	814.1869	0.142527	-363.792067	-363.784957	-363.784013	-363.822938	27.852
C         -0.19750        1.56210       -0.06370
C          0.04640        0.09730        0.03840
C          0.69000       -0.90830       -0.84190
C          1.44630       -1.53280        0.32350
O          2.70660       -0.90140        0.42280
C          0.34570       -0.90950        1.22810
C         -0.91000       -1.64930        0.75650
N         -0.79270       -0.97210       -0.58000
H          0.70040        2.12640        0.20960
H         -0.46900        1.82320       -1.09130
H         -1.01440        1.88120        0.59330
H          1.00230       -0.83120       -1.87520
H          1.54610       -2.62840        0.35830
H          3.11780       -1.19120        1.24330
H          0.55860       -0.67870        2.27180
H         -0.88670       -2.74600        0.72980
H         -1.83440       -1.31490        1.23450
