16
gdb 14109	3.7448	1.85696	1.42619	2.2262	66.18	-0.2397	-0.022	0.2177	887.3543	0.128877	-383.718349	-383.710665	-383.709721	-383.750652	28.119
C          0.06390        1.09670       -0.81040
C         -0.06400        0.05940        0.28270
O          0.78710       -0.13370        1.12600
C         -1.30990       -0.74750        0.27590
C         -1.88260       -1.44620        1.47900
C         -1.48980       -2.26810        0.28690
C         -2.46330       -2.01100       -0.85870
O         -2.30480       -0.56940       -0.73740
H          1.00790        1.63070       -0.69920
H          0.00970        0.61780       -1.79360
H         -0.77720        1.79730       -0.76630
H         -1.20150       -1.50620        2.32030
H         -2.92970       -1.27640        1.71350
H         -0.72150       -3.02810        0.31790
H         -2.09960       -2.35530       -1.83250
H         -3.50360       -2.32490       -0.71640
