18
gdb 432	4.34218	3.60938	2.38799	0.1206	63.28	-0.2822	0.0842	0.3663	624.4665	0.166462	-235.696852	-235.689979	-235.689035	-235.726894	25.85
C         -0.59010        1.38110       -0.07850
C          0.07650        0.01420       -0.03110
C          1.46010       -0.18340       -0.71050
C          1.85960       -1.12640        0.45540
C          0.69450       -0.53270        1.30300
C          1.14550        0.52220        2.31060
H          0.07110        2.16840        0.29790
H         -0.86160        1.64410       -1.10730
H         -1.50830        1.40250        0.51980
H         -0.62060       -0.73730       -0.42010
H          1.47220       -0.59240       -1.72420
H          2.04680        0.74110       -0.70930
H          1.69600       -2.17890        0.20730
H          2.86860       -1.02160        0.86460
H          0.07150       -1.27210        1.81700
H          1.80440        1.26860        1.85320
H          0.29410        1.05470        2.74810
H          1.70200        0.05410        3.13010
