19
gdb 17820	3.89102	1.57542	1.35685	2.2627	71.71	-0.2395	0.071	0.3105	984.6983	0.166187	-365.016028	-365.007978	-365.007034	-365.048952	29.575
C          0.25610        1.57140       -0.21600
C          0.15180        0.08690        0.04050
N          1.40280       -0.69580        0.10170
C          0.55170       -0.60940        1.29650
C          1.14400        0.01710        2.53770
C          2.37970       -0.71520        3.12140
C          3.13490        0.57690        2.75820
O          1.91890        1.21490        2.31480
H          1.10980        1.99470        0.31060
H          0.36480        1.75940       -1.29000
H         -0.65300        2.08190        0.12150
H         -0.67770       -0.39120       -0.48260
H          1.28890       -1.59500       -0.35740
H         -0.04310       -1.48910        1.55250
H          0.33760        0.20690        3.26000
H          2.32420       -0.93830        4.18780
H          2.68480       -1.60700        2.57230
H          3.59520        1.12040        3.59170
H          3.85910        0.47930        1.94200
