16
gdb 2986	3.22634	2.57985	1.68734	2.0062	60.41	-0.2485	-0.0408	0.2077	772.6944	0.135504	-325.753767	-325.746008	-325.745063	-325.786256	27.077
C         -0.10750        1.58920        0.10320
C          0.02310        0.06770       -0.05120
C          0.90390       -0.50790        1.05180
O          1.44640       -1.58270        1.00380
C         -1.35000       -0.60750       -0.08060
C         -1.53480       -2.06210        0.12220
N         -2.02630       -1.10370        1.13280
H          0.87240        2.07710        0.09380
H         -0.69970        2.01120       -0.71330
H         -0.60630        1.84780        1.04360
H          0.52250       -0.16910       -0.99980
H          1.01990        0.14440        1.94930
H         -2.03640       -0.10370       -0.75990
H         -2.31410       -2.58670       -0.42330
H         -0.65380       -2.65290        0.35360
H         -1.39260       -1.09640        1.92930
