18
gdb 10639	2.46717	1.82964	1.2909	4.9781	73.29	-0.2341	0.0318	0.2658	1020.252	0.152947	-343.975026	-343.966059	-343.965115	-344.00845	32.493
C          0.30400        1.37080        0.30840
N         -0.22830        0.13670       -0.25720
C          0.57760       -0.46850       -1.27750
C          1.97750       -1.03890       -1.00060
C          0.83430       -1.97020       -1.28910
C          0.26290       -2.88020       -0.22400
C          0.40540        0.15460       -2.57620
N          0.28700        0.65810       -3.61100
H          1.30540        1.26530        0.75800
H          0.36800        2.13140       -0.47630
H         -0.38480        1.73850        1.07350
H         -0.47480       -0.53050        0.45990
H          2.75260       -0.90110       -1.74530
H          2.31200       -0.96040        0.02910
H          0.82640       -2.40360       -2.28460
H          0.36700       -2.45970        0.78100
H         -0.79670       -3.09160       -0.40100
H          0.79910       -3.83460       -0.22520
