14
gdb 16098	4.80941	1.7195	1.47149	1.9325	69.33	-0.2485	-0.0121	0.2365	850.0053	0.106456	-345.354598	-345.347915	-345.346971	-345.38516	26.208
C         -0.00080       -1.21270       -0.11070
C          0.03980       -0.01530       -0.01340
C          0.04610        1.40970        0.13200
O          0.38370        2.19110       -1.05150
C          1.25380        2.27330        0.07160
C          1.01700        3.47880        0.97230
C         -0.40200        3.26840        1.46170
C         -0.92560        2.12160        1.02500
H         -0.02580       -2.27030       -0.20380
H          2.25110        1.86890       -0.07750
H          1.73720        3.50370        1.79970
H          1.13030        4.41960        0.42010
H         -0.92130        4.00180        2.06770
H         -1.91450        1.73630        1.23500
