14
gdb 9042	4.37892	0.86014	0.76886	2.9098	71.21	-0.2671	-0.073	0.1941	1410.2613	0.103418	-382.52552	-382.51635	-382.515406	-382.561369	29.574
C          0.28720        1.54600       -0.06610
C         -0.01490        0.02800        0.03460
C          0.56040       -0.66140       -1.21310
O         -0.11260       -1.02280       -2.13740
C          0.56670       -0.55180        1.23450
C          1.10180       -1.04620        2.19880
C          1.69360       -1.63150        3.37560
O          2.86710       -1.90190        3.48650
H          1.36430        1.72430       -0.12980
H         -0.19460        1.95830       -0.95610
H         -0.09350        2.06460        0.81640
H         -1.09860       -0.12920        0.01600
H          1.66670       -0.76830       -1.20200
H          0.97410       -1.82200        4.19740
