14
gdb 10014	3.69949	1.52644	1.11105	3.5762	65.68	-0.2482	-0.0691	0.1791	1015.6462	0.105255	-415.88398	-415.875518	-415.874574	-415.91764	28.588
C          0.89410        1.93410        0.11130
N          0.81650        0.53390        0.47570
C          0.57730       -0.38880       -0.36080
N          0.57850       -1.70770        0.13550
C         -0.01160       -2.78700       -0.46620
O         -0.53160       -2.77220       -1.55990
C          0.40350       -0.24610       -1.86320
O         -0.17320        0.68750       -2.35970
H          1.00350        2.13480       -0.95790
H         -0.02190        2.43190        0.45150
H          1.72460        2.38560        0.66330
H          0.86630       -1.78540        1.10230
H          0.05080       -3.69280        0.16400
H          0.90560       -1.02290       -2.46640
