11
gdb 2567	4.74103	2.26325	1.72133	2.8639	52.68	-0.294	-0.0677	0.2263	685.5414	0.078181	-339.424322	-339.417869	-339.416924	-339.454749	22.397
O         -0.17110        0.32520        0.72900
C          0.11690        1.07830       -0.16660
C          1.34200        1.95080       -0.09900
C          1.52510        2.69730        1.20730
N          2.37100        1.56950        0.88930
C          1.78840        2.52880       -1.34250
N          2.09270        2.98950       -2.35780
H         -0.49290        1.17510       -1.08450
H          2.00310        3.67080        1.16640
H          0.72690        2.57700        1.93450
H          2.01440        0.73480        1.35920
