17
gdb 17469	4.44592	1.97112	1.6923	1.3237	66.88	-0.2234	0.068	0.2914	813.2162	0.143105	-363.826137	-363.819437	-363.818493	-363.856543	26.799
C         -0.00330        1.55000        0.03860
C         -0.05510        0.04960        0.13150
C         -1.33530       -0.71590       -0.20600
N         -1.34560       -1.98360        0.55800
C         -0.31010       -2.96640        0.21660
C         -0.09970       -2.03830        1.35850
C          0.69970       -0.79050        1.08080
O          1.13000       -0.65680       -0.28310
H          0.97780        1.91680        0.34960
H         -0.17740        1.88170       -0.99100
H         -0.76960        2.00740        0.67280
H         -2.20690       -0.12800        0.10450
H         -1.42570       -0.90630       -1.28080
H         -0.59690       -3.99760        0.40480
H          0.30150       -2.79960       -0.66420
H         -0.18200       -2.36810        2.39040
H          1.37690       -0.39120        1.83110
