20
gdb 7604	3.19192	1.5507	1.28138	2.7035	76.25	-0.2379	-0.0065	0.2314	1056.9717	0.174496	-349.026611	-349.017202	-349.016258	-349.060538	34.486
C         -0.19110        1.47580        0.10130
C          0.04340       -0.01700        0.05890
C          1.35170       -0.61080       -0.33850
C          0.89170       -0.75100        1.11240
C          1.62110        0.02950        2.19000
C          0.35390       -2.11510        1.45260
C          0.47500       -2.59990        2.88680
O         -0.17320       -2.81140        0.60720
H          0.71680        2.03500        0.34240
H         -0.53750        1.82670       -0.87700
H         -0.95690        1.74270        0.83780
H         -0.81890       -0.60280       -0.24590
H          1.34120       -1.51610       -0.93400
H          2.18820        0.05920       -0.51280
H          2.00170        0.97670        1.80200
H          0.97420        0.26420        3.04240
H          2.48380       -0.52740        2.57130
H         -0.01370       -1.90370        3.57710
H          0.01390       -3.58430        2.96970
H          1.52550       -2.66040        3.19160
