17
gdb 20809	6.03533	1.21776	1.0954	2.936	71.77	-0.2468	0.0008	0.2476	1127.9045	0.141889	-363.880074	-363.871913	-363.870969	-363.913195	29.157
C          0.12200        1.53900       -0.17390
C         -0.06120        0.02950        0.06130
C          0.57290       -0.44610        1.32520
C          0.08880       -0.98640        2.47510
C          1.24770       -1.19750        3.27930
C          1.33680       -1.77220        4.65670
N          2.33590       -0.81100        2.65580
O          1.91180       -0.33340        1.41390
H          1.18290        1.79790       -0.21670
H         -0.34380        1.83810       -1.11720
H         -0.33520        2.11890        0.63330
H         -1.12500       -0.22380        0.09840
H          0.36830       -0.52510       -0.78200
H         -0.93810       -1.20580        2.71800
H          0.93530       -2.79060        4.68300
H          2.37740       -1.79820        4.98530
H          0.75910       -1.17400        5.36900
