20
gdb 15907	2.91467	1.62845	1.39542	2.4605	70.97	-0.246	0.0597	0.3058	1009.1149	0.176556	-386.12797	-386.119246	-386.118302	-386.161025	33.108
C         -0.24720        1.71400        0.16240
C         -0.09230        0.20750        0.39590
C         -1.33680       -0.58410        0.02140
C         -1.79990       -0.67540       -1.46010
O         -0.63750       -0.67720       -2.29190
C         -2.29810       -2.11500       -1.16540
C         -1.31660       -2.14940        0.04420
O         -0.06270       -2.72210       -0.25530
H          0.65350        2.25550        0.46830
H         -0.42070        1.92890       -0.89690
H         -1.09010        2.12380        0.73080
H          0.76410       -0.16590       -0.17240
H          0.13520        0.01370        1.45180
H         -2.19300       -0.24190        0.61570
H         -2.52860        0.06150       -1.81910
H         -0.90670       -0.94700       -3.17640
H         -3.34680       -2.13180       -0.85450
H         -2.13720       -2.86630       -1.94410
H         -1.66400       -2.63570        0.95910
H          0.24380       -2.29780       -1.06770
