14
gdb 19452	5.61391	1.60098	1.58569	5.273	66.26	-0.2403	-0.0288	0.2115	815.8969	0.109856	-341.541908	-341.535884	-341.53494	-341.571957	23.734
N         -0.09820       -1.15720       -0.11720
C         -0.03480       -0.00570       -0.03490
C         -0.00550        1.44730        0.02010
C          0.04160        2.08760        1.46510
N          1.48210        1.66790        1.47160
C          1.42840        2.11350        0.03980
C          1.02420        3.59940        0.12900
C          0.09270        3.58210        1.08650
H         -0.72810        1.87350       -0.67530
H         -0.60310        1.74520        2.27240
H          2.05690        2.28940        2.04210
H          2.22380        1.79800       -0.63290
H          1.39530        4.40910       -0.48210
H         -0.52250        4.37340        1.48900
