14
gdb 252	7.60425	2.09483	1.75454	1.4348	54.82	-0.2622	0.0545	0.3167	692.7907	0.117241	-270.401061	-270.39373	-270.392786	-270.431817	26.225
C         -0.05100        0.85850       -0.65710
C          0.17360       -0.11770        0.49480
O          0.48180        0.55820        1.70890
C         -1.07670       -0.95680        0.81690
C         -1.46720       -1.85200       -0.26270
C         -1.77350       -2.58860       -1.16200
H          0.86160        1.42830       -0.86640
H         -0.33100        0.32430       -1.56920
H         -0.84740        1.56660       -0.40490
H          0.98670       -0.81100        0.22710
H          1.21320        1.15910        1.53670
H         -0.86910       -1.53180        1.72670
H         -1.89910       -0.27300        1.06240
H         -2.05240       -3.24280       -1.95030
