17
gdb 5577	3.34564	1.78941	1.18766	1.5618	72.46	-0.1776	0.0295	0.207	1009.5462	0.14224	-363.884746	-363.876379	-363.875435	-363.918199	29.905
C          0.22840        1.48020       -0.10120
N         -0.05560        0.05860        0.00140
C          0.54930       -0.65930        1.04080
C          0.64590       -2.02070        1.15340
C          0.22110       -3.14580        0.28130
O          1.26760       -2.33920        2.33600
C          1.55370       -1.17900        2.96850
C          1.14440       -0.11370        2.23200
H          1.30210        1.72120       -0.16920
H         -0.27140        1.87720       -0.98840
H         -0.17970        2.00670        0.76790
H          0.03320       -0.40970       -0.88900
H         -0.46720       -2.78280       -0.48770
H          1.06300       -3.63680       -0.22480
H         -0.30560       -3.91510        0.85710
H          2.04570       -1.26960        3.92290
H          1.25000        0.92590        2.49660
