18
gdb 14455	3.35938	2.25979	1.947	1.9992	70.64	-0.2219	0.0812	0.3031	789.8469	0.154909	-347.76041	-347.753727	-347.752783	-347.790854	26.987
C          0.06250        1.48770       -0.12830
C         -0.00450       -0.00120        0.00900
O          0.59970       -0.83410       -1.05020
C          0.05590       -1.78690       -0.07540
C          0.58560       -0.93960        1.11410
C         -0.38540       -1.02780        2.28570
C         -1.74640       -1.03740        1.51700
C         -1.24530       -0.95260        0.08000
H          1.10300        1.82440       -0.16900
H         -0.44210        1.81320       -1.04330
H         -0.42380        1.97220        0.72490
H          0.17930       -2.85080       -0.28050
H          1.66130       -0.91160        1.28750
H         -0.23460       -1.93320        2.88160
H         -0.29320       -0.17430        2.96480
H         -2.32490       -1.94800        1.70110
H         -2.38470       -0.18900        1.78350
H         -1.94950       -0.93720       -0.75180
