15
gdb 2216	3.652	3.26886	2.285	2.4157	56.28	-0.2405	0.0584	0.2989	628.8657	0.124815	-345.612787	-345.606231	-345.605287	-345.643243	24.414
O          0.06190        1.43400        0.19700
C          0.01400        0.05520       -0.00550
C          0.37140       -0.50750       -1.41130
C         -0.99400       -1.26900       -1.44740
C         -1.32810       -0.72770       -0.03870
O         -0.87420       -1.60890        1.01000
C          0.36420       -0.87820        1.17380
H          0.94130        1.74730       -0.04160
H          0.43400        0.28770       -2.15830
H          1.27610       -1.11870       -1.46590
H         -1.66730       -0.91110       -2.23010
H         -0.93930       -2.35810       -1.49030
H         -2.31370       -0.30100        0.16030
H          1.24710       -1.52220        1.07220
H          0.39760       -0.34990        2.13510
