17
gdb 20897	4.67195	1.41375	1.17147	1.6093	72.3	-0.1945	0.0359	0.2304	1047.3562	0.144165	-360.069523	-360.061576	-360.060632	-360.102195	29.408
C          0.11820        1.51090        0.07940
C         -0.08120        0.00880       -0.12950
N          0.69170       -0.50980       -1.24100
C          1.78600       -1.30120       -1.20750
C          2.20590       -1.48200       -2.50920
C          1.27570       -0.74100       -3.27760
N          1.28320       -0.53920       -4.65900
N          0.35730       -0.15690       -2.51070
H          1.16170        1.73720        0.31810
H         -0.15310        2.05390       -0.82880
H         -0.51090        1.86520        0.90180
H          0.21830       -0.55340        0.75990
H         -1.13740       -0.20870       -0.32030
H          2.18070       -1.67260       -0.27410
H          3.05220       -2.05380       -2.85330
H          1.53290       -1.36840       -5.18090
H          0.39710       -0.17270       -4.98280
