18
gdb 12239	3.09332	1.52617	1.246	2.1799	68.07	-0.2495	-0.0265	0.223	1036.6421	0.151861	-384.948238	-384.939443	-384.938499	-384.981786	31.638
C          0.15960        1.37280       -0.30150
C         -0.05550       -0.13760       -0.17210
C         -1.48180       -0.51170        0.22500
C         -2.51960       -0.44280       -0.94810
C         -2.27320       -1.94660       -1.11570
O         -2.18980       -2.68700       -2.05670
C         -1.72390       -2.07200        0.30400
O         -0.67500       -2.96300        0.53110
H          1.19220        1.60070       -0.58260
H         -0.49520        1.81100       -1.06240
H         -0.04860        1.88300        0.64550
H          0.20180       -0.62890       -1.12060
H          0.63130       -0.55260        0.57370
H         -1.78230        0.02180        1.12980
H         -3.53580       -0.21910       -0.61180
H         -2.28190        0.17820       -1.81410
H         -2.53650       -2.26810        1.01700
H         -0.44350       -3.35350       -0.32090
