16
gdb 8927	3.9007	1.1882	1.08558	6.9425	61.34	-0.2631	0.0253	0.2884	1100.2059	0.129722	-417.048409	-417.03929	-417.038346	-417.082145	32.334
N         -0.20860        1.56050        0.04150
C         -0.07290        0.10760       -0.03710
C         -1.40380       -0.51180        0.11060
N         -2.43430       -1.01970        0.22780
C          0.59340       -0.42970       -1.32980
O         -0.08580        0.15800       -2.41860
C          2.08320       -0.09570       -1.39440
O          2.51520       -0.51110       -2.68430
H          0.69700        1.98500        0.20960
H         -0.54040        1.89770       -0.85820
H          0.52500       -0.22950        0.81890
H          0.48940       -1.52610       -1.34970
H          0.47800        0.01700       -3.18990
H          2.22650        0.98610       -1.26130
H          2.62740       -0.62390       -0.59700
H          3.37460       -0.12190       -2.86800
