12
gdb 21891	5.86853	1.66122	1.29472	0.7737	61.74	-0.2136	-0.079	0.1346	853.2639	0.08629	-410.844351	-410.838009	-410.837065	-410.874906	24.075
O         -0.04930        1.29990       -0.24740
C          0.03120       -0.02250       -0.01960
N          1.18950       -0.59640        0.01450
N          1.17550       -1.93130        0.25070
C          0.05290       -2.71030        0.45220
N          0.16220       -3.97080        0.66640
C         -1.16820       -1.89730        0.37940
N         -1.19390       -0.62940        0.15790
H          0.85370        1.62630       -0.35620
H          2.08130       -2.37520        0.27550
H         -0.75640       -4.39110        0.79230
H         -2.11750       -2.41310        0.52410
