18
gdb 15044	3.00659	1.5594	1.15252	1.6486	73.25	-0.2577	0.0493	0.307	1079.0901	0.151452	-347.749129	-347.740239	-347.739295	-347.782741	32.193
C          0.16470        1.43730       -0.14360
C         -0.05030       -0.07290       -0.04520
C         -1.54110       -0.48870        0.04600
C         -2.29320       -0.06470       -1.13270
C         -2.90170        0.29820       -2.10400
C         -1.64120       -1.98990        0.30300
C         -2.67540       -2.86180       -0.26160
O         -1.34100       -2.86030       -0.78270
H          1.23110        1.67410       -0.20570
H         -0.32630        1.84720       -1.03070
H         -0.24130        1.95490        0.73310
H          0.38970       -0.57990       -0.91020
H          0.45930       -0.46450        0.84390
H         -1.97660        0.00860        0.92650
H         -3.44010        0.61700       -2.96210
H         -1.18460       -2.28710        1.24980
H         -2.96520       -3.76490        0.27380
H         -3.42720       -2.43680       -0.92200
