19
gdb 9721	2.69195	1.90634	1.6065	3.9309	74.2	-0.3067	0.0398	0.3465	924.4715	0.166976	-327.968224	-327.960074	-327.95913	-328.000763	30.45
C         -0.14260        1.55440       -0.01930
C          0.04200        0.02830       -0.00040
C          0.87440       -0.51350       -1.19360
C          1.34950       -1.91450       -0.75350
C          1.34760       -1.89510        0.80500
C          0.86950       -0.48420        1.20900
C         -1.28010       -0.61900        0.00480
N         -2.31830       -1.12820        0.00890
H          0.83740        2.04140       -0.02340
H         -0.69140        1.87560       -0.90910
H         -0.69480        1.89720        0.86010
H          0.31190       -0.51970       -2.13020
H          1.72770        0.16150       -1.32600
H          0.66290       -2.68080       -1.12270
H          2.33450       -2.14670       -1.16580
H          0.66140       -2.65310        1.19160
H          2.33200       -2.11540        1.22520
H          1.72180        0.19450        1.32900
H          0.30290       -0.46830        2.14310
