15
gdb 19514	3.56985	2.0349	1.87083	3.9799	61.67	-0.2515	0.0058	0.2574	765.9004	0.120191	-399.791924	-399.785308	-399.784363	-399.8228	24.518
O          0.30750        0.17730       -0.55030
C          0.26110        1.34170       -0.23990
N          1.26120        2.00600        0.45320
C          2.67060        1.96410        0.14960
C          3.02030        1.66930       -1.29990
O          2.15450        2.49750       -2.07390
C          1.87830        3.68090       -1.33860
C          1.90280        3.26110        0.12200
H         -0.62880        1.98120       -0.39670
H          3.35390        1.68960        0.94630
H          4.07930        1.91520       -1.47490
H          2.83070        0.63570       -1.59700
H          2.64680        4.45550       -1.49660
H          0.91830        4.07060       -1.68940
H          1.97070        4.01030        0.90450
