16
gdb 20228	4.45113	2.67559	2.30485	1.1698	73.7	-0.1936	-0.0311	0.1625	658.8927	0.13215	-309.340905	-309.33559	-309.334645	-309.36973	23.352
C         -0.05410        1.65730       -0.04210
C          1.44160        1.98700        0.00910
C          2.09410        0.85540       -0.32040
C          2.47890       -0.23600        0.65590
C          0.97740       -0.66720        0.99640
C          1.78340       -1.31430       -0.11130
C          1.17620       -0.19540       -1.00940
C          0.03350        0.08920       -0.01180
H         -0.55060        2.11890        0.81980
H         -0.61990        1.96730       -0.93280
H          1.82140        2.70490        0.72990
H          3.23920       -0.30750        1.42420
H          0.73690       -1.06600        1.97490
H          2.03680       -2.34730       -0.30120
H          1.05230       -0.22190       -2.09010
H         -0.91520       -0.44140       -0.14510
