18
gdb 10215	3.98237	1.05679	0.88157	3.7254	65.47	-0.2537	-0.0353	0.2184	1301.1669	0.151219	-422.067497	-422.058042	-422.057098	-422.102335	32.28
C         -0.01090        1.46990        0.08330
O          0.10300        0.06740       -0.00900
C          0.64120       -0.52100        1.15380
C          0.66630       -2.04100        0.95920
C          1.44330       -2.77060        2.06750
O          1.58400       -4.14890        1.81090
C         -0.74500       -2.57870        0.81220
O         -1.13140       -3.62080        1.29230
H          0.96920        1.94660        0.23820
H         -0.43250        1.82490       -0.85970
H         -0.67500        1.77130        0.90810
H          1.66460       -0.15420        1.33950
H          0.03780       -0.25110        2.03830
H          1.16400       -2.23180       -0.00360
H          2.45480       -2.35520        2.13450
H          0.94980       -2.58530        3.03600
H          0.68350       -4.49950        1.78530
H         -1.43030       -1.94110        0.21830
