18
gdb 9876	5.00525	0.99988	0.92951	1.8297	73.98	-0.2586	0.0551	0.3137	1270.9828	0.150959	-347.756406	-347.747402	-347.746458	-347.790412	32.708
C          0.19040        1.59600       -0.26280
C         -0.01240        0.09830       -0.17010
C         -1.43230       -0.42100       -0.31440
C         -2.32750       -0.04130        0.88680
C         -3.67040       -0.59600        0.77860
C         -4.77090       -1.06520        0.66160
C          1.11000       -0.79930       -0.48440
O          0.74040       -0.54580        0.87320
H          1.24490        1.84740       -0.12730
H         -0.13620        1.97210       -1.23830
H         -0.38060        2.12380        0.50790
H         -1.87600       -0.03460       -1.23910
H         -1.41090       -1.51120       -0.39880
H         -1.84720       -0.40110        1.80460
H         -2.39470        1.04950        0.97910
H         -5.74640       -1.47470        0.57360
H          0.91300       -1.80900       -0.84290
H          2.06690       -0.37950       -0.79340
