17
gdb 9045	4.6602	0.90382	0.78953	3.7196	74.94	-0.2725	0.0259	0.2983	1392.1979	0.140176	-326.715217	-326.70598	-326.705036	-326.749643	32.549
C         -0.07390        1.57990        0.13180
C          0.03630        0.04630        0.01550
C          0.74250       -0.43270       -1.27550
C         -0.04610       -0.09240       -2.55670
C          0.59870       -0.61760       -3.75350
C          1.15200       -1.05820       -4.72490
C          0.73710       -0.49540        1.18530
N          1.29930       -0.91680        2.10300
H          0.91640        2.04220        0.08730
H         -0.68260        1.98380       -0.68040
H         -0.54060        1.86410        1.07780
H         -0.97650       -0.37890        0.03160
H          1.74160        0.01210       -1.32960
H          0.88350       -1.51610       -1.22520
H         -1.06300       -0.50060       -2.47920
H         -0.15910        0.99340       -2.65760
H          1.63160       -1.44410       -5.59010
