14
gdb 2909	6.93997	2.00177	1.58413	3.9058	62.57	-0.211	-0.0019	0.2091	747.9836	0.115013	-324.612244	-324.605726	-324.604782	-324.644007	22.699
O         -0.07650       -0.03800        0.00070
C         -0.00290        1.17370        0.00930
N          1.15910        1.88520        0.00240
C          1.26090        3.35710        0.01320
C          2.79360        3.63390       -0.00200
C          3.39870        2.24660       -0.01930
C          2.44200        1.31960       -0.01600
H         -0.89020        1.83670        0.02450
H          0.75900        3.77930       -0.86260
H          0.77920        3.76490        0.90700
H          3.08640        4.22280       -0.87880
H          3.10610        4.20970        0.87660
H          4.46050        2.04910       -0.03250
H          2.50940        0.24230       -0.02520
