18
gdb 11531	5.53669	1.02293	0.93085	2.1693	69.4	-0.2645	-0.0371	0.2274	1243.0655	0.152091	-384.934021	-384.925459	-384.924515	-384.967801	30.967
O          0.27630        1.53640       -0.19910
C          0.05300        0.16020       -0.05820
C          0.60140       -0.63780       -1.25910
C         -0.11530       -0.32090       -2.55370
C          0.25960        0.89640       -3.35650
C          0.59850       -0.47900       -3.87400
C          0.66380       -0.34030        1.23390
O          1.24850        0.39600        1.99180
H          0.75130        1.80530        0.60340
H         -1.03210       -0.04810        0.01830
H          1.67030       -0.41190       -1.35710
H          0.51590       -1.71150       -1.04040
H         -1.17100       -0.58330       -2.54860
H         -0.53190        1.45180       -3.84710
H          1.06270        1.51470       -2.97380
H          1.63830       -0.78940       -3.85280
H          0.03910       -0.86850       -4.71750
H          0.54600       -1.42290        1.44760
