17
gdb 13663	3.95643	1.24918	1.14506	3.1681	68.73	-0.266	0.0114	0.2775	1093.8218	0.140951	-363.847715	-363.839187	-363.838242	-363.881454	30.295
C         -0.38460        1.48140        0.13670
C          0.32980        0.15080        0.04420
C          1.76810        0.01830        0.50770
C          0.64890       -0.64040        1.27630
O          0.22810       -0.09890        2.50210
C          0.94100       -0.57190        3.61690
C          2.30290       -0.01190        3.73750
N          3.36390        0.43120        3.84900
H         -0.10190        2.01680        1.04570
H         -0.13810        2.11200       -0.72360
H         -1.47120        1.34580        0.15510
H          0.05420       -0.45130       -0.81760
H          2.45690       -0.60900       -0.04720
H          2.21800        0.89430        0.96100
H          0.56020       -1.72660        1.23780
H          0.37070       -0.28010        4.50410
H          1.01970       -1.66950        3.61390
