10
gdb 2569	4.78423	2.27925	1.71724	2.2343	48.82	-0.2918	-0.0778	0.2141	674.7265	0.064771	-359.29518	-359.288646	-359.287702	-359.325943	21.976
O         -0.09520        0.23550        0.76720
C          0.26160        0.87890       -0.17910
C          1.38430        1.89930       -0.07540
C          1.53860        2.63150        1.21230
O          2.41220        1.57960        0.86360
C          1.80910        2.51290       -1.31590
N          2.09800        2.97890       -2.33310
H         -0.20150        0.79070       -1.18200
H          1.96100        3.63370        1.19020
H          0.82080        2.40320        1.99730
