18
gdb 12865	2.72929	2.2902	1.79467	1.5185	72.09	-0.2227	0.0112	0.2339	837.004	0.154043	-347.80131	-347.793827	-347.792883	-347.832383	29.643
C         -0.02940        1.52120        0.01090
C         -0.00830        0.01240        0.03620
C         -1.30790       -0.74950       -0.26080
C         -1.25740       -1.95860        0.64880
C         -0.16830       -1.95160        1.42710
C          0.71880       -0.79450        1.13220
C          1.25390       -0.73970       -0.29320
O          1.28210       -1.84580       -1.13810
H          0.95170        1.93700        0.26280
H         -0.30070        1.89720       -0.98290
H         -0.75440        1.92390        0.72830
H         -2.19250       -0.13090       -0.05810
H         -1.36510       -1.03810       -1.31930
H         -2.02310       -2.72660        0.64490
H          0.07880       -2.70700        2.16490
H          1.28980       -0.32450        1.92660
H          2.14610       -0.13700       -0.43920
H          0.70150       -2.51730       -0.75530
