16
gdb 9635	4.23313	1.20522	1.08162	2.3822	66.52	-0.2685	0.0103	0.2787	1097.0117	0.129933	-379.904956	-379.896359	-379.895414	-379.938316	30.598
C          0.07930        1.52990       -0.20440
C          0.00970        0.04230        0.08750
N          1.29060       -0.70150        0.10470
C          0.51370       -0.60510        1.34770
C          1.17930        0.14370        2.48120
O          2.21890       -0.63560        3.04360
C         -1.11770       -0.62810       -0.53050
N         -2.01140       -1.15850       -1.03880
H          0.99350        1.95600        0.20900
H          0.08500        1.69830       -1.28500
H         -0.78420        2.05100        0.21890
H          1.18230       -1.61600       -0.32670
H         -0.02120       -1.49850        1.66330
H          1.54930        1.11810        2.13710
H          0.45750        0.32260        3.28450
H          2.85660       -0.79550        2.33820
