19
gdb 1725	4.36195	2.03343	1.88797	1.0526	67.28	-0.242	0.0837	0.3257	798.1851	0.170559	-310.904813	-310.896912	-310.895968	-310.936373	29.589
C          0.09960        1.53170       -0.01670
O          0.26460        0.13730       -0.14640
C          0.61500       -0.55220        1.03970
C          1.99760       -0.15510        1.55540
C         -0.47530       -0.60940        2.16010
C         -0.26480       -2.14660        2.23050
C          0.44970       -2.08190        0.85400
H          1.04670        2.05640        0.17380
H         -0.30800        1.89230       -0.96470
H         -0.60570        1.79060        0.78740
H          2.02210        0.88340        1.90060
H          2.28820       -0.78710        2.40030
H          2.74380       -0.27590        0.76350
H         -0.30440       -0.02860        3.07030
H         -1.45610       -0.35430        1.75000
H          0.41130       -2.43610        3.03920
H         -1.16090       -2.76660        2.29550
H         -0.23410       -2.27910        0.02540
H          1.36070       -2.67000        0.71660
