22
gdb 9847	3.21598	1.28935	1.2378	1.4954	77.96	-0.2581	0.0706	0.3287	1153.9356	0.198444	-350.199406	-350.189677	-350.188733	-350.233476	36.385
C         -0.05650        1.60810       -0.15760
C         -0.11740        0.07840       -0.16190
C          0.84890       -0.55410       -1.17400
O          2.20240       -0.19150       -0.89640
C          0.68460       -2.06580       -1.31300
C          0.95970       -2.89080       -0.06890
C         -0.38730       -2.54650       -2.26280
C          1.06970       -2.66130       -2.64400
H          0.96310        1.95220        0.03500
H         -0.36510        2.01580       -1.12680
H         -0.71490        2.03080        0.60730
H          0.11510       -0.30230        0.84250
H         -1.13500       -0.26220       -0.38860
H          0.65220       -0.10840       -2.15800
H          2.40600       -0.48410       -0.00150
H          0.26610       -2.65520        0.74580
H          0.86160       -3.95920       -0.28320
H          1.98120       -2.73150        0.29790
H         -0.92610       -3.45350       -2.00900
H         -0.99190       -1.80500       -2.77580
H          1.45510       -1.99440       -3.40780
H          1.51950       -3.64870       -2.65130
