13
gdb 850	7.42232	2.02384	1.59668	2.4064	56.9	-0.1699	0.0513	0.2213	732.6467	0.103242	-340.652252	-340.645531	-340.644587	-340.682369	25.359
N          0.08460        1.37380        0.15340
C         -0.06840       -0.00280        0.05980
C         -1.15760       -0.82330        0.07510
C         -0.63310       -2.16530        0.03930
N         -1.41030       -3.33030        0.11930
C          0.72100       -2.05240       -0.00330
O          1.07590       -0.70950        0.01720
H          0.92940        1.69860       -0.29960
H         -0.72090        1.88240       -0.18330
H         -2.19390       -0.52910        0.12580
H         -2.26940       -3.25760       -0.41110
H         -0.90790       -4.15660       -0.17870
H          1.53690       -2.75210       -0.03330
