18
gdb 13320	4.69747	1.29912	1.16939	4.4213	71.26	-0.2353	0.0224	0.2577	1052.6775	0.155972	-343.992694	-343.98487	-343.983926	-344.025665	28.373
N         -0.31420       -1.07870        0.10500
C         -0.12870        0.05270        0.24580
C          0.10200        1.48730        0.45360
N          1.37840        1.91300       -0.11890
C          2.54420        1.37840        0.60550
C          2.79860        2.32810        1.80750
C          2.15110        3.67180        1.37360
C          1.56270        3.37010       -0.03290
H         -0.70400        2.03240       -0.04960
H         -0.00920        1.68620        1.53580
H          2.38000        0.33670        0.88950
H          3.39930        1.39950       -0.07930
H          2.32880        1.94410        2.71750
H          3.86600        2.42520        2.01960
H          1.36610        3.97300        2.07290
H          2.87230        4.49180        1.33490
H          2.27910        3.66140       -0.80930
H          0.62600        3.89410       -0.23990
