16
gdb 2229	4.82261	2.75718	2.16838	1.5596	64.71	-0.2247	0.0093	0.2339	658.4089	0.138352	-288.630839	-288.624648	-288.623704	-288.660359	24.518
C          0.01570        1.51010       -0.02440
C         -0.04220        0.00760        0.08360
C         -1.36520       -0.71200       -0.21250
C         -1.31050       -1.95420        0.65180
C         -0.21820       -1.97210        1.42160
C          0.65840       -0.79830        1.13650
N          1.19800       -0.71000       -0.24520
H          1.00790        1.87450        0.25220
H         -0.18520        1.83640       -1.05170
H         -0.72700        1.98160        0.62870
H         -2.22260       -0.07840        0.05350
H         -1.47880       -0.94440       -1.28010
H         -2.06870       -2.72810        0.61230
H          0.04160       -2.74350        2.13730
H          1.29220       -0.36800        1.90570
H          0.99570       -1.58000       -0.73560
