17
gdb 4007	3.45364	1.13871	0.87005	0.2935	75.98	-0.2393	-0.0296	0.2097	1307.6756	0.139005	-363.794652	-363.785273	-363.784328	-363.829028	33.395
C          0.01040        1.57570       -0.04260
C         -0.00950        0.04620        0.02090
C          0.68150       -0.58690       -1.18910
C          0.70640       -2.10000       -1.20550
N          0.16180       -2.73240       -0.22810
O          0.25310       -4.11170       -0.36420
C          1.33920       -2.73460       -2.31550
C          1.88750       -3.20440       -3.27890
H          1.03580        1.96170       -0.06760
H         -0.50280        1.94560       -0.93750
H         -0.48690        2.01230        0.82880
H          0.47840       -0.29920        0.93840
H         -1.04170       -0.31510        0.07840
H          0.20200       -0.24900       -2.11830
H          1.71970       -0.23340       -1.25960
H         -0.19190       -4.42660        0.43050
H          2.36660       -3.64100       -4.12030
