12
gdb 11630	3.5336	1.92258	1.52739	4.1623	61.62	-0.2772	-0.0286	0.2486	804.6718	0.084712	-377.472555	-377.466156	-377.465211	-377.503262	23.594
O         -0.04320       -0.03310       -0.13530
C         -0.04270        1.14000        0.02610
C         -0.95980        2.38090        0.05270
C         -0.01630        2.98220        1.12920
C          0.93830        2.37470        0.06170
N         -0.00280        2.98630       -0.97510
C          2.36710        2.45710       -0.02950
N          3.52120        2.48370       -0.09370
H         -2.03760        2.47610       -0.04170
H         -0.00650        4.07250        1.13000
H         -0.01210        2.53620        2.12310
H          0.00850        2.44520       -1.84510
