17
gdb 15414	3.63649	1.12761	0.95018	3.7472	66.56	-0.2515	0.0019	0.2533	1210.5954	0.140985	-400.982872	-400.974198	-400.973253	-401.016793	30.2
O         -0.19420        1.27540       -0.30540
C         -0.09690       -0.13670       -0.24820
C         -1.49240       -0.67520        0.05730
C         -1.52690       -2.17250        0.26390
C         -2.79150       -2.95040        0.02450
N         -1.65920       -3.09420       -0.85760
C         -1.67470       -2.79110       -2.20560
O         -2.59600       -3.01120       -2.95380
H          0.67140        1.63140       -0.52560
H          0.26830       -0.55370       -1.20040
H          0.60480       -0.46090        0.53820
H         -1.85140       -0.18460        0.97010
H         -2.17580       -0.38750       -0.74960
H         -0.86340       -2.54040        1.04660
H         -3.02590       -3.80870        0.64800
H         -3.65160       -2.41310       -0.36780
H         -0.70130       -2.38850       -2.54660
