13
gdb 1389	4.78166	1.41995	1.14805	5.0112	62.73	-0.2613	0.0048	0.2661	999.9589	0.100789	-303.472917	-303.464624	-303.463679	-303.507239	27.312
C         -0.00770        1.48860        0.01840
C          0.00740        0.03380       -0.00480
C          0.03070       -1.16950       -0.02970
C          0.00060       -2.63940       -0.03880
N         -1.33980       -3.24860        0.00130
C          0.72530       -3.15910       -1.21720
N          1.29550       -3.55660       -2.13910
H          1.01090        1.89090        0.01540
H         -0.52870        1.89240       -0.85600
H         -0.51300        1.86550        0.91400
H          0.54120       -3.01020        0.84280
H         -1.80840       -2.92040        0.84150
H         -1.88380       -2.89700       -0.78250
