16
gdb 12623	2.90941	2.23999	1.45774	3.061	66.78	-0.2484	-0.055	0.1935	864.0969	0.13071	-383.774417	-383.76692	-383.765975	-383.806102	28.236
C          0.11810        1.58540       -0.02300
C         -0.03480        0.05570        0.03240
C          0.65960       -0.62440       -1.12940
C          1.78320       -1.27270       -0.78720
C          1.99140       -1.12650        0.66470
O          2.98590       -1.31710        1.33080
C          0.67920       -0.58500        1.24920
O          0.90620        0.26630        2.33910
H          1.17300        1.87330       -0.02270
H         -0.34800        1.98690       -0.92820
H         -0.35440        2.04220        0.84890
H         -1.10470       -0.18320        0.02640
H          0.27730       -0.53960       -2.14220
H          2.47900       -1.77380       -1.44750
H          0.09440       -1.46930        1.56030
H          1.78060        0.02150        2.67790
