18
gdb 4455	3.47785	1.6773	1.1523	1.4567	77.05	-0.1709	0.0581	0.229	1051.7221	0.153964	-344.029965	-344.020897	-344.019952	-344.063644	32.605
C          0.19000        1.49410        0.11680
C          0.05920        0.01480       -0.03680
C         -0.06410       -0.79030       -1.14930
C         -0.09550       -0.35910       -2.58510
C         -0.13460       -2.14610       -0.68820
C         -0.06200       -2.12680        0.68340
N         -0.14870       -3.13320        1.66970
N          0.05890       -0.81610        1.07130
H          1.14710        1.78320        0.57130
H          0.13200        1.98490       -0.85700
H         -0.60600        1.91950        0.74250
H         -0.05130        0.72920       -2.68500
H          0.74720       -0.77170       -3.15370
H         -1.01100       -0.69510       -3.08720
H         -0.21000       -3.03020       -1.30440
H         -0.51350       -3.98790        1.26690
H          0.75740       -3.35210        2.07560
H          0.01890       -0.51340        2.02940
