12
gdb 17168	4.61856	1.90649	1.5837	2.6374	55.17	-0.2512	-0.0503	0.2009	762.4771	0.08133	-418.350832	-418.344652	-418.343708	-418.381433	22.919
O          0.03060       -0.05440        0.05100
C          0.07760        1.14640       -0.00410
C          1.33430        1.93940       -0.00400
O          2.64320        1.33180        0.06280
C          2.96420        2.74970        0.00600
C          1.78950        3.11570       -0.95460
O          1.26000        4.17130       -0.11050
C          1.73620        3.20040        0.85790
H         -0.83400        1.78070       -0.05960
H          4.00830        3.05710        0.02240
H          1.73270        3.21270       -2.03790
H          1.61620        3.39770        1.92220
