13
gdb 21062	6.87272	1.3668	1.14846	0.8899	70.72	-0.2411	-0.0213	0.2197	983.6159	0.096127	-357.618643	-357.611336	-357.610392	-357.651034	25.686
C         -0.00460        1.43570        0.01930
N         -0.02820       -0.01370        0.00260
N         -0.00470       -0.70420       -1.13430
C          0.03080       -1.97070       -0.72920
C          0.03100       -1.99790        0.68030
N         -0.00440       -0.72550        1.11720
C          0.05340       -3.11330        1.54880
C          0.07440       -4.08450        2.25840
H          1.02590        1.80320        0.01580
H         -0.52240        1.79670       -0.86880
H         -0.50890        1.77580        0.92330
H          0.04600       -2.78850       -1.43070
H          0.09220       -4.93660        2.89160
