15
gdb 18120	4.48752	2.11465	1.52978	2.4935	61.37	-0.2557	0.0163	0.272	798.1677	0.121916	-399.805616	-399.799561	-399.798617	-399.835787	23.31
C          0.00580        1.40420        0.06610
O          1.30400        1.93420       -0.06990
C          2.00870        0.91660       -0.78350
C          3.46920        0.61220       -0.47210
C          3.43390       -0.95780       -0.49770
N          2.07470       -1.35550       -0.04860
C          1.37090       -0.32010       -0.21810
O          0.12200       -0.03650        0.19140
H         -0.45370        1.79830        0.97460
H         -0.61810        1.61560       -0.81540
H          1.82660        1.02070       -1.86580
H          4.18390        1.04650       -1.17360
H          3.70420        0.96180        0.53770
H          3.63320       -1.34640       -1.50490
H          4.17950       -1.39870        0.16920
