16
gdb 14246	3.95506	1.75277	1.57897	4.1572	64.	-0.2709	0.009	0.2799	858.5442	0.131187	-383.756331	-383.749356	-383.748412	-383.787616	26.317
C          0.40630        1.54210        0.08010
C          0.11260        0.05130        0.01610
C          0.94280       -0.84700       -0.96120
C          1.30520       -1.80100        0.22590
C          0.57220       -0.84050        1.19410
O          1.86100       -0.43060        1.75710
C          2.55040       -1.32710        0.96380
O          3.72020       -1.53420        0.95990
H          1.46050        1.72500        0.30520
H          0.17170        2.02270       -0.87520
H         -0.19180        2.02980        0.85710
H         -0.95710       -0.11680       -0.14970
H          0.34500       -1.32970       -1.73570
H          1.80280       -0.36840       -1.43510
H          1.13780       -2.87060        0.12540
H         -0.11970       -1.12720        1.98480
