17
gdb 17563	3.24606	2.12819	1.65691	0.8393	68.33	-0.2306	0.0588	0.2893	830.9355	0.142681	-363.797132	-363.790001	-363.789057	-363.828016	28.425
O         -0.10010        1.39950       -0.03880
C          0.04230        0.02480       -0.00380
C         -0.84330       -0.81610        0.85600
C          0.65900       -0.93060        1.02750
C          1.25290       -1.78570       -0.10620
C          0.63540       -0.80670       -1.12700
C          0.13990       -0.97660       -2.50640
N          1.40180       -0.24160       -2.23340
H          0.77940        1.79410       -0.05080
H         -1.34500       -0.25980        1.64160
H         -1.42250       -1.63630        0.43710
H          1.13720       -0.71330        1.97430
H          2.34440       -1.76240       -0.14770
H          0.90920       -2.82430       -0.15270
H          0.27450       -1.92190       -3.02510
H         -0.73600       -0.40880       -2.81050
H          1.21320        0.75900       -2.28920
