16
gdb 4803	6.17214	1.19493	1.04554	1.8898	69.16	-0.1758	0.0374	0.2133	1098.866	0.132119	-379.944455	-379.936353	-379.935409	-379.977075	30.045
N         -0.32370        1.41330        0.47280
C         -0.02330        0.06760        0.17830
C         -0.80490       -0.82910       -0.52090
N         -0.17250       -2.05520       -0.47790
C          1.00650       -1.95160        0.20770
C          1.88330       -3.14360        0.40280
O          2.05640       -3.89800       -0.79830
C          1.12570       -0.64350        0.63280
H          0.50630        1.99310        0.48260
H         -0.98430        1.81170       -0.18270
H         -1.74210       -0.69640       -1.03690
H         -0.45890       -2.88480       -0.96760
H          2.84370       -2.81820        0.82770
H          1.44350       -3.85680        1.11110
H          2.41340       -3.29470       -1.45940
H          1.93570       -0.24280        1.22470
