20
gdb 5966	3.33137	1.15452	1.05028	1.0975	77.36	-0.2623	0.0384	0.3007	1239.0477	0.173208	-348.977709	-348.967586	-348.966641	-349.012196	37.155
C          0.09480        1.61650       -0.01830
C         -0.00960        0.08840       -0.00740
C          0.60780       -0.52770        1.25260
C          0.70810       -2.07580        1.23600
C         -0.66190       -2.75550        1.10620
O          1.46010       -2.51750        0.09730
C          1.37450       -2.51670        2.47280
C          1.95040       -2.85160        3.47400
H          1.14010        1.94320        0.01650
H         -0.35560        2.03780       -0.92240
H         -0.41640        2.05780        0.84470
H         -1.06420       -0.20000       -0.08720
H          0.49330       -0.32930       -0.88600
H          1.62420       -0.13450        1.38920
H          0.04500       -0.22400        2.14380
H         -1.11150       -2.50370        0.14320
H         -0.54270       -3.83950        1.15870
H         -1.32950       -2.43390        1.90940
H          2.37920       -2.26630        0.24100
H          2.45180       -3.16010        4.35810
