15
gdb 5768	6.10144	1.45864	1.2846	1.7547	69.13	-0.2108	0.0152	0.226	939.1387	0.120961	-362.659004	-362.652391	-362.651447	-362.690291	24.881
C          0.41190        1.53820        0.22250
N          1.24170        0.40780       -0.21220
C         -0.19140        0.18280        0.09400
C         -0.52630       -0.65680        1.25130
C         -1.43770       -1.65410        1.42860
C         -1.30820       -2.08520        2.78940
C         -0.33000       -1.31680        3.33230
O          0.15370       -0.44020        2.41130
H          0.64790        1.91360        1.21330
H          0.11970        2.29590       -0.50030
H          1.37120        0.43540       -1.22050
H         -0.86340        0.02350       -0.74530
H         -2.11560       -2.03750        0.68200
H         -1.86690       -2.86180        3.28770
H          0.12430       -1.26530        4.30780
