19
gdb 20126	4.39574	1.26026	1.11334	2.8341	71.3	-0.2371	0.063	0.3001	1114.3696	0.165739	-365.014844	-365.006386	-365.005442	-365.04813	31.204
O         -0.71610        1.07900        0.29050
C         -0.31540       -0.25080       -0.04610
C          0.68330       -0.28280       -1.18010
C          0.65360       -1.40520       -2.18940
C          0.22850       -0.01780       -2.59330
C          0.20320       -0.99250        1.17990
C          0.98980       -0.28880        2.22100
N         -0.39140       -0.73100        2.49400
H          0.03670        1.66120        0.14770
H         -1.23840       -0.74670       -0.37800
H          1.67080        0.08440       -0.90590
H          1.59950       -1.78630       -2.55720
H         -0.11720       -2.16140       -2.08290
H         -0.82920        0.16500       -2.75030
H          0.88080        0.55200       -3.24540
H          0.41920       -2.04240        0.99040
H          1.76370       -0.81620        2.77120
H          1.16550        0.77700        2.10030
H         -0.99920        0.08160        2.39490
