12
gdb 120	27.37372	2.3551	2.22921	2.9091	46.78	-0.2481	0.0251	0.2732	567.546	0.10111	-248.395289	-248.388824	-248.38788	-248.425185	20.343
C         -0.04270        1.37840       -0.04140
O         -0.00260       -0.00750        0.27200
C         -1.15420       -0.68090        0.07570
N         -1.22880       -1.91140        0.32090
C         -2.49960       -2.56200        0.08420
H          0.95290        1.77030        0.17000
H         -0.27570        1.54610       -1.10020
H         -0.77550        1.91090        0.57750
H         -1.98430       -0.06350       -0.30560
H         -2.85890       -3.01760        1.01410
H         -3.28600       -1.88870       -0.29610
H         -2.36760       -3.37660       -0.63720
