19
gdb 14030	4.99776	1.1883	1.10654	2.4479	71.99	-0.242	0.0754	0.3174	1126.2144	0.16612	-365.020726	-365.012609	-365.011665	-365.053661	30.437
O          0.06530        1.27970       -0.59160
C          0.05830        0.15260        0.26830
C         -1.31580       -0.47010        0.33870
N         -1.74440       -1.09960       -0.93590
C         -1.55870       -1.92900        0.25180
C         -0.56470       -3.09120        0.38160
C         -1.50450       -3.70080        1.46410
C         -2.62710       -2.71360        1.02480
H         -0.29320        0.96460       -1.43040
H          0.78700       -0.60330       -0.06090
H          0.37050        0.51150        1.25500
H         -2.06100        0.12060        0.87030
H         -2.73570       -0.93740       -1.09760
H         -0.52800       -3.69010       -0.53300
H          0.45770       -2.85340        0.68390
H         -1.72840       -4.76540        1.37760
H         -1.15310       -3.49950        2.47870
H         -3.17150       -2.18250        1.81030
H         -3.35240       -3.18640        0.35380
