21
gdb 15834	2.97049	1.36195	1.05522	2.5179	75.37	-0.2353	0.0805	0.3158	1205.9768	0.187653	-366.234154	-366.224652	-366.223707	-366.26904	33.94
C          0.12500        1.25100       -0.52070
C          0.02720       -0.11040        0.14730
O         -1.14970       -0.74900       -0.31280
C         -1.32290       -2.09460        0.10930
C         -1.80620       -2.19090        1.55960
C         -2.30820       -2.75020       -0.84470
C         -3.43510       -1.98280       -1.42490
N         -2.29970       -2.40880       -2.27050
H          1.02260        1.77670       -0.18170
H          0.17460        1.14510       -1.60820
H         -0.74800        1.86240       -0.27530
H          0.90820       -0.72660       -0.09670
H          0.00600        0.00560        1.24160
H         -0.35610       -2.62030        0.01770
H         -1.07260       -1.77800        2.25780
H         -2.74760       -1.64700        1.67980
H         -1.97300       -3.23720        1.83540
H         -2.45010       -3.81080       -0.64470
H         -4.37840       -2.47770       -1.63760
H         -3.50940       -0.93070       -1.16890
H         -1.68600       -1.60350       -2.38390
