17
gdb 7802	3.33248	1.93129	1.29871	2.1796	66.37	-0.2612	0.0167	0.2779	939.6299	0.143155	-401.022865	-401.015376	-401.014432	-401.054699	28.167
C          0.07790        1.49650        0.04130
C          0.03770       -0.01050       -0.06080
O          0.77040       -0.41750       -1.17200
C          0.77560       -1.83480       -1.29050
C          1.47020       -2.43650       -0.06960
C          0.91800       -1.86180        1.21370
N          0.86960       -2.53670        2.28220
O          0.56910       -0.53830        1.17210
H          1.11540        1.83000        0.11900
H         -0.37490        1.93900       -0.84880
H         -0.47090        1.82510        0.92630
H         -0.99770       -0.38560       -0.14380
H         -0.25750       -2.20750       -1.37840
H          1.30540       -2.07330       -2.21510
H          1.38480       -3.52390       -0.03660
H          2.53570       -2.18110       -0.11520
H          0.50160       -1.95810        3.04110
