15
gdb 14219	4.865	1.81837	1.61908	3.3099	65.45	-0.2469	-0.0126	0.2343	812.8012	0.11913	-362.628066	-362.621472	-362.620528	-362.658565	25.503
C         -0.03270        1.45600        0.06550
C          0.05870       -0.03290       -0.07580
C         -0.58170       -0.89960       -1.15900
C         -0.41590       -2.03520       -0.13160
N         -0.32900       -0.96580        1.01660
C          1.14510       -0.82740        0.60600
C          1.09810       -2.20170        0.02410
O          1.86530       -3.11540       -0.07210
H          0.59770        1.95630       -0.67710
H         -1.06510        1.79070       -0.07900
H          0.29070        1.77260        1.06130
H         -1.63170       -0.62100       -1.28850
H         -0.10060       -1.00620       -2.13590
H         -1.09960       -2.87590       -0.05070
H          1.88390       -0.37120        1.25260
