22
gdb 14874	3.67629	1.2173	0.99816	1.7531	78.44	-0.239	0.0823	0.3213	1269.0665	0.199514	-350.197736	-350.18826	-350.187316	-350.23302	33.864
C         -0.05910        1.67320       -0.17900
C         -0.00630        0.18900        0.20000
C         -1.36930       -0.48800        0.08090
C         -1.85800       -0.80930       -1.34980
O         -1.82230       -2.22740       -1.10150
C         -1.47460       -2.02680        0.29210
C         -0.26430       -2.84530        0.71050
C         -0.53010       -4.35010        0.59270
H          0.92790        2.13890       -0.09970
H         -0.40730        1.80910       -1.20900
H         -0.74300        2.22450        0.47590
H          0.72060       -0.32400       -0.44130
H          0.36450        0.08780        1.22780
H         -2.10100        0.06780        0.67520
H         -2.86950       -0.46130       -1.59660
H         -1.17870       -0.51900       -2.16260
H         -2.32830       -2.29890        0.93280
H          0.59520       -2.57370        0.08800
H         -0.00650       -2.58580        1.74580
H          0.35610       -4.93150        0.86370
H         -1.34950       -4.66030        1.25070
H         -0.80860       -4.60710       -0.43300
