11
gdb 5354	6.03722	1.62288	1.27905	4.0324	65.94	-0.2786	-0.0885	0.1901	851.3965	0.075095	-356.497714	-356.491832	-356.490887	-356.5279	21.313
N          0.05140       -1.14710       -0.00470
C         -0.00850        0.00780        0.00350
C         -0.02840        1.44540        0.01100
N         -1.21970        2.05780        0.03000
C         -1.18890        3.38700        0.03640
C          0.01110        4.10110        0.02410
N          1.19670        3.49130        0.00530
C          1.17590        2.16040       -0.00130
H         -2.14580        3.90110        0.05180
H          0.01330        5.18760        0.02970
H          2.12900        1.64010       -0.01660
