15
gdb 9736	3.92551	1.55976	1.50446	2.2713	61.26	-0.266	0.0111	0.2771	879.7496	0.118971	-399.807709	-399.800004	-399.79906	-399.840419	27.664
O         -0.21380        1.38650       -0.18310
C         -0.00660       -0.00680       -0.01130
C         -1.39530       -0.66540       -0.07970
C         -1.60520       -0.73270       -1.59370
O         -0.32110       -1.03240       -2.14180
C          0.69780       -0.65090       -1.23540
C          0.71800       -0.26900        1.24470
N          1.31100       -0.45220        2.21950
H          0.64400        1.82020       -0.25630
H         -1.35510       -1.66640        0.35690
H         -2.13820       -0.06740        0.44950
H         -2.29870       -1.52170       -1.89720
H         -1.97090        0.22820       -1.97880
H          1.37640        0.07590       -1.70150
H          1.28360       -1.53050       -0.93960
