22
gdb 12412	2.70952	2.0133	1.43176	1.1561	77.65	-0.241	0.0805	0.3216	987.3607	0.20175	-350.227839	-350.21956	-350.218616	-350.259842	32.563
C         -0.15950        1.59300       -0.02720
C          0.00130        0.06540       -0.02370
C          0.74640       -0.44800       -1.27490
C          2.24190       -0.10220       -1.22180
C          2.83420       -0.55480        0.11390
O          2.10900       -0.03500        1.21560
C          0.74700       -0.45620        1.22650
C          0.15650       -0.01390        2.55810
H          0.79810        2.09420        0.13860
H         -0.56220        1.93680       -0.98560
H         -0.84710        1.92650        0.75510
H         -1.00000       -0.38600       -0.01660
H          0.63690       -1.53980       -1.32820
H          0.28750       -0.04330       -2.18400
H          2.78010       -0.58320       -2.04680
H          2.38840        0.97830       -1.33150
H          2.84390       -1.65870        0.16140
H          3.86480       -0.20710        0.23420
H          0.72470       -1.56090        1.18220
H          0.23600        1.06930        2.68050
H         -0.89890       -0.29630        2.62480
H          0.69580       -0.48670        3.38320
