11
gdb 23815	3.38578	2.36828	1.39353	5.0804	59.2	-0.2302	-0.0592	0.171	776.2412	0.072967	-434.825781	-434.819548	-434.818604	-434.856393	23.074
F          0.01040        0.01120        0.00340
C         -0.01180        1.33200        0.01060
C         -1.17540        2.00280        0.02950
N         -1.12440        3.37950        0.03610
N          0.01700        4.09320        0.02480
N          1.12550        3.49020        0.00700
C          1.24350        2.06220       -0.00200
N          2.37760        1.47900       -0.02010
H         -2.14870        1.53160        0.03990
H         -1.95670        3.94590        0.05010
H          3.11170        2.19100       -0.02600
