17
gdb 17428	2.73561	2.5886	1.89648	1.6569	66.73	-0.2497	0.0637	0.3134	783.7258	0.142596	-363.809773	-363.802662	-363.801718	-363.840583	27.966
C         -0.06060        1.53640        0.00180
C         -0.02520        0.03750        0.01990
C          0.44320       -0.79550       -1.19190
C         -0.55120       -1.82270       -0.68220
C         -0.54340       -1.81120        0.81330
C          0.43990       -0.75540        1.27180
O          1.79620       -1.04280        1.49610
N         -1.36000       -0.79550        0.05410
H          0.95980        1.93630        0.01880
H         -0.56130        1.91260       -0.89590
H         -0.59260        1.92410        0.87650
H          0.09860       -0.34970       -2.12890
H          1.50640       -1.04820       -1.28280
H         -1.03610       -2.61690       -1.23850
H         -1.02250       -2.58670        1.40030
H          0.07740       -0.25850        2.17640
H          2.09850       -1.63290        0.79830
