12
gdb 20710	7.50075	1.37457	1.17011	3.6563	59.7	-0.2956	-0.0863	0.2093	950.6413	0.083702	-410.842866	-410.835841	-410.834897	-410.874758	23.741
C         -0.03470        1.45620       -0.03830
C          0.00530       -0.02980       -0.01240
N         -0.04960       -0.80440       -1.07660
N          0.02250       -2.02950       -0.53250
C         -0.00320       -3.20290       -1.33730
O          0.05760       -4.30790       -0.89690
N          0.11670       -2.01210        0.80980
N          0.10650       -0.76640        1.14750
H          0.88690        1.87090        0.38080
H         -0.15270        1.81240       -1.06220
H         -0.86540        1.82600        0.56960
H         -0.08640       -2.91700       -2.39700
