18
gdb 11044	4.23787	1.74051	1.4432	2.2499	67.84	-0.2505	0.0919	0.3424	921.8706	0.153018	-384.937509	-384.929702	-384.928758	-384.969238	29.542
C          0.22630        1.57220       -0.03430
C          0.04290        0.06390        0.03800
O          0.65500       -0.52270       -1.11580
C          1.19600       -1.79490       -0.79300
C          1.43850       -1.78590        0.70700
C          1.72740       -3.05480        1.45690
O          2.14670       -0.60120        1.11530
C          0.71640       -0.61670        1.21450
H          1.28940        1.81740        0.02570
H         -0.17070        1.95520       -0.97800
H         -0.30220        2.06480        0.78800
H         -1.03220       -0.18740        0.06770
H          0.49780       -2.61030       -1.04620
H          2.11320       -1.93140       -1.37680
H          2.66630       -3.50280        1.11350
H          1.82040       -2.85360        2.52670
H          0.92940       -3.78880        1.30450
H          0.29750       -0.55020        2.21570
