11
gdb 155	13.91383	3.41925	3.06432	1.7822	38.7	-0.2641	0.0777	0.3418	424.287	0.090736	-268.248806	-268.243491	-268.242547	-268.277228	18.033
O          0.10160        1.31830        0.24980
C          0.06560       -0.01640       -0.22280
C         -1.34180       -0.55560       -0.24340
C         -1.65200       -1.93620        0.14300
O         -1.88200       -0.85900        1.05240
H         -0.29980        1.31230        1.12630
H          0.47820        0.00410       -1.23750
H          0.69690       -0.68150        0.38690
H         -2.03650       -0.02660       -0.89670
H         -2.54670       -2.41680       -0.24950
H         -0.84420       -2.61410        0.41640
