19
gdb 13256	5.8478	0.93917	0.87044	3.7049	73.61	-0.249	0.0335	0.2825	1334.1701	0.166339	-365.080096	-365.071625	-365.070681	-365.114713	30.203
O          0.02910        0.68190       -1.18090
C          0.04900        1.37280       -0.18410
N          1.11620        1.53510        0.64290
C          2.41490        0.92230        0.40300
C          3.49890        1.93960        0.07290
C          3.99280        2.91440        1.18340
C          5.43850        2.72420        0.64970
C          4.96170        1.43420       -0.07090
H         -0.82940        1.95180        0.16570
H          1.01540        2.16290        1.42470
H          2.71130        0.33840        1.28520
H          2.27200        0.22500       -0.42650
H          3.20130        2.50400       -0.81730
H          3.58200        3.92710        1.19940
H          3.87460        2.47430        2.18060
H          5.71190        3.50770       -0.06250
H          6.24160        2.62890        1.38380
H          5.13580        0.54310        0.54200
H          5.33400        1.23820       -1.07890
