16
gdb 5780	6.01902	1.39078	1.24084	3.2198	70.88	-0.2071	0.0326	0.2397	979.8597	0.133192	-342.809847	-342.802954	-342.80201	-342.842138	26.067
C         -0.19830        1.33360       -0.31130
C          1.21220        1.10620        0.15480
C          0.24130       -0.05620        0.10300
C         -0.26840       -0.68870        1.33690
C         -0.58170       -0.12780        2.55320
N         -1.01020       -1.17450        3.34290
C         -0.94040       -2.30380        2.58810
N         -0.49930       -2.04970        1.37760
H         -0.88110        1.85410        0.35210
H         -0.37170        1.52060       -1.36550
H          2.01120        1.13640       -0.57800
H          1.49390        1.47110        1.13700
H          0.38890       -0.77570       -0.69440
H         -0.54390        0.88210        2.92590
H         -1.31630       -1.10950        4.29880
H         -1.22190       -3.27340        2.97070
