17
gdb 17692	4.78737	1.5572	1.51706	1.2872	68.48	-0.2316	0.0689	0.3005	895.2472	0.14306	-363.760843	-363.754016	-363.753072	-363.792251	26.511
C          1.14710        0.99520        0.15140
N          0.47560        0.06790       -0.77190
C         -0.23650        0.53580        0.43140
C         -0.52450       -0.51060        1.44450
C         -1.77010       -1.42990        1.58630
C         -0.89220       -1.55820        2.84980
C          0.37020       -1.66570        1.96270
O         -0.73200       -0.08490        2.85960
H          1.97800        0.56570        0.70270
H          1.28440        2.03090       -0.14700
H          0.13700        0.56900       -1.58870
H         -1.03450        1.26490        0.30380
H         -2.71620       -0.90630        1.73150
H         -1.84970       -2.29020        0.91720
H         -1.11250       -2.04270        3.80040
H          0.48800       -2.54480        1.32590
H          1.29770       -1.35270        2.44390
