13
gdb 16049	3.68937	1.79904	1.5088	3.8397	59.55	-0.2659	-0.0188	0.2471	828.5886	0.09541	-398.553334	-398.546489	-398.545545	-398.584331	25.473
O         -0.01830        1.39370        0.05160
C         -0.06010        0.01200        0.05790
C         -1.34510       -0.78890        0.07510
C         -2.37240       -0.08210       -0.79660
O         -1.41720        0.04300       -1.89950
C         -0.45820       -0.74460       -1.18110
C          0.30290       -1.72950       -1.87600
N          0.93820       -2.53260       -2.41510
H         -0.36990        1.68180       -0.80260
H          0.74800       -0.42900        0.63370
H         -1.52970       -1.60970        0.75440
H         -3.21150       -0.71270       -1.10110
H         -2.72870        0.89290       -0.45090
