24
gdb 12410	2.61912	1.88829	1.35501	0.0798	84.2	-0.2835	0.0775	0.361	1053.5916	0.22559	-314.305264	-314.296681	-314.295737	-314.337521	34.201
C         -0.04310        1.55900       -0.05220
C          0.06360        0.03070       -0.01310
C          0.66890       -0.53090       -1.31290
C          0.70540       -2.06560       -1.31600
C          1.43370       -2.61250       -0.08050
C          0.83010       -2.04500        1.21320
C          0.80740       -0.50170        1.24120
C          2.21460        0.08870        1.43390
H          0.93200        2.03030       -0.21460
H         -0.70050        1.88140       -0.86700
H         -0.45330        1.95530        0.88350
H         -0.96140       -0.36510        0.05540
H          0.09070       -0.16660       -2.17100
H          1.68660       -0.13900       -1.44600
H         -0.32490       -2.44870       -1.32420
H          1.17930       -2.43270       -2.23370
H          1.38560       -3.70740       -0.06480
H          2.49920       -2.35470       -0.14060
H         -0.20070       -2.41310        1.30930
H          1.37620       -2.42420        2.08540
H          0.21580       -0.19840        2.11640
H          2.87680       -0.11580        0.58700
H          2.18060        1.17340        1.56960
H          2.68540       -0.33790        2.32610
