20
gdb 19175	3.23931	1.76023	1.341	1.629	75.42	-0.2477	0.0745	0.3222	989.5715	0.176449	-348.943504	-348.934929	-348.933985	-348.976526	32.256
C         -0.04260        1.55570       -0.28030
C          0.04310        0.03390       -0.16190
C          1.13410       -0.82180       -0.88600
C          2.14320       -0.51060        0.27380
C          2.93340        0.78470        0.44910
C          0.77350       -0.76980        0.97480
C          0.67800       -2.01380        0.02390
O         -0.50910       -2.71720       -0.19260
H          0.89840        2.03700       -0.54180
H         -0.76070        1.81740       -1.06510
H         -0.40740        2.00530        0.65050
H         -0.97850       -0.33500       -0.32350
H          1.34860       -0.85330       -1.95680
H          2.84400       -1.34390        0.41140
H          2.33080        1.64400        0.73870
H          3.68030        0.64270        1.23770
H          3.47940        1.04420       -0.46520
H          0.56280       -0.73930        2.04620
H          1.43910       -2.77780        0.19780
H         -1.22080       -2.10140       -0.39310
