14
gdb 2524	3.87494	2.0736	1.49754	5.7673	56.17	-0.2521	-0.0367	0.2154	813.7678	0.111745	-361.753989	-361.746208	-361.745263	-361.786586	25.989
C         -0.02140        1.54690        0.01060
C         -0.04640        0.01810        0.00260
N         -1.40610       -0.53700        0.01260
C         -2.03790       -0.76560       -1.21740
O         -3.15470       -1.16650       -1.38630
C         -2.01440       -0.77890        1.25180
O         -3.12770       -1.18180        1.43770
H          1.01060        1.91060        0.00270
H         -0.53440        1.95090       -0.86740
H         -0.51760        1.94140        0.90250
H          0.46980       -0.36960       -0.88050
H          0.48650       -0.37910        0.87150
H         -1.34730       -0.52810       -2.05230
H         -1.30790       -0.55040        2.07600
