17
gdb 9646	4.27408	1.20638	1.07722	4.3017	70.17	-0.2927	0.0076	0.3003	1140.6965	0.139945	-363.865434	-363.8565	-363.855555	-363.899123	31.554
C          0.28450        1.50940        0.13950
C         -0.29980        0.11680       -0.13450
C          0.33280       -0.51330       -1.35050
O          1.66430       -1.02600       -1.22720
C          0.61690       -1.96210       -1.50930
C          0.32580       -3.01800       -0.46490
C          0.63470       -2.47410       -2.87470
N          0.62580       -2.89980       -3.94920
H          1.36140        1.44670        0.32100
H          0.12460        2.18120       -0.71030
H         -0.18470        1.96140        1.01750
H         -0.15850       -0.52220        0.74110
H         -1.38040        0.18970       -0.31010
H          0.17530        0.04170       -2.27790
H          0.34000       -2.58600        0.53570
H         -0.65160       -3.47500       -0.64540
H          1.08350       -3.80520       -0.51160
