18
gdb 20027	4.67902	1.15073	1.02967	2.3467	69.5	-0.252	0.0837	0.3357	1176.321	0.152389	-384.884345	-384.87598	-384.875036	-384.917809	30.007
C          0.04690        1.30580        0.01500
O         -0.45280        0.07990       -0.48230
C          0.44550       -0.56950       -1.32490
C          1.53850       -1.41570       -0.72520
C          0.34180       -2.06500       -1.40430
C         -0.66760       -2.78960       -0.58000
C         -1.68240       -3.66100       -1.18440
O         -0.54040       -4.21690       -0.52970
H          0.96380        1.16140        0.60380
H          0.26620        2.01170       -0.80030
H         -0.72870        1.73360        0.65430
H          0.66740       -0.02480       -2.24450
H          2.50580       -1.46260       -1.21270
H          1.56860       -1.47390        0.35800
H          0.51600       -2.50960       -2.37960
H         -0.90190       -2.32660        0.37680
H         -2.63610       -3.81530       -0.68100
H         -1.70710       -3.78530       -2.26680
