15
gdb 1928	4.67193	2.83282	2.4679	1.3145	56.05	-0.2408	0.0612	0.302	602.1286	0.126423	-345.625804	-345.620051	-345.619106	-345.654893	23.319
O         -0.06970        1.39800       -0.01850
C         -0.01710        0.01140        0.02490
C          0.33720       -0.83510        1.29890
C         -0.36840       -1.91480        0.44590
C         -1.33410       -0.80690       -0.04340
O          0.52710       -2.09890       -0.67040
C          0.81820       -0.73750       -1.03430
H          0.82930        1.74240        0.02630
H          1.38870       -1.00200        1.54600
H         -0.23620       -0.52260        2.17290
H         -0.69090       -2.88070        0.82610
H         -2.05550       -0.49390        0.71260
H         -1.80920       -0.94410       -1.01720
H          0.49030       -0.52700       -2.05910
H          1.89580       -0.53970       -0.95390
