16
gdb 15606	3.62245	1.58295	1.29179	2.9326	61.41	-0.2495	-0.0259	0.2237	943.1315	0.12985	-420.877531	-420.869465	-420.868521	-420.911127	28.052
O         -0.24460        1.47370        0.62130
C          0.00140        0.17420        0.10290
C          0.76690       -0.71350        1.08690
O         -0.18260       -1.16520        2.03870
C         -1.50110       -1.03430        1.50830
C         -1.35210       -0.56390        0.04450
C         -2.50620        0.29190       -0.43380
O         -3.18190        0.02860       -1.39570
H          0.60080        1.89330        0.80780
H          0.48750        0.22310       -0.88050
H          1.23040       -1.56120        0.55730
H          1.55970       -0.16380        1.60930
H         -2.01970       -1.99670        1.57300
H         -2.05830       -0.30040        2.10610
H         -1.26490       -1.41780       -0.63220
H         -2.69860        1.19270        0.18310
