13
gdb 7042	2.90804	1.26622	0.88702	3.8166	68.24	-0.2776	-0.0479	0.2296	1224.0258	0.092483	-398.598219	-398.589296	-398.588352	-398.634814	28.586
C          0.40480        1.00580       -0.29260
C          0.10080       -0.39980       -0.08780
C         -0.16620       -1.56230        0.08690
C         -0.51670       -2.93090        0.30450
N         -1.66390       -3.26900        0.71340
O          0.44640       -3.90420        0.05340
C          1.70440       -3.59990       -0.39000
O          2.50380       -4.45840       -0.59470
H          1.24120        1.32170        0.33980
H          0.68000        1.19910       -1.33480
H         -0.46030        1.63050       -0.04840
H         -1.71980       -4.28560        0.80660
H          1.86730       -2.52150       -0.52360
