11
gdb 236	9.67999	2.17217	1.81363	5.6789	47.48	-0.274	-0.037	0.237	640.5669	0.082597	-285.324641	-285.317853	-285.316909	-285.356331	21.969
C         -0.06450        1.50880        0.01130
C          0.09950        0.00260        0.00140
O          1.16800       -0.54770       -0.01180
C         -1.22630       -0.78870        0.00920
C         -1.04750       -2.23460       -0.00020
N         -0.93030       -3.38290       -0.00750
H          0.91720        1.98240        0.00520
H         -0.63850        1.83740       -0.86240
H         -0.62280        1.82760        0.89880
H         -1.80920       -0.49480        0.89120
H         -1.82500       -0.48530       -0.85880
