18
gdb 16553	3.01207	2.63065	2.19549	1.1388	70.84	-0.2303	0.0184	0.2487	738.7575	0.157755	-347.810327	-347.804331	-347.803387	-347.839962	25.238
C         -0.00120        1.53850       -0.01440
C          1.52360        1.77910        0.00130
C          2.02250        1.39950        1.41680
O          1.77320        0.03550        1.72740
C          0.46600       -0.43110        1.42280
C          0.00670       -0.00500        0.00700
C          1.12110       -0.29380       -0.99230
C          1.98460        0.72190       -0.99560
H         -0.51840        1.98100        0.84380
H         -0.45270        1.91940       -0.93460
H          1.82440        2.80370       -0.23590
H          3.10640        1.52370        1.50770
H          1.54190        2.06170        2.15740
H          0.51810       -1.52050        1.51750
H         -0.26250       -0.06050        2.16430
H         -0.95700       -0.46760       -0.22530
H          1.22180       -1.22870       -1.53070
H          2.92180        0.77080       -1.53720
