14
gdb 13574	3.87754	1.54164	1.24446	4.9814	64.9	-0.2826	-0.064	0.2186	957.3501	0.106211	-378.72604	-378.718063	-378.717119	-378.758776	27.725
C          0.27060        1.39260        0.20700
C          0.01020       -0.06170       -0.09970
C          0.79180       -0.78910       -1.16500
N          0.99130       -1.07190        0.24280
C          2.12230       -0.91600        0.99910
O          2.18890       -0.35620        2.06830
C          3.29500       -1.60140        0.41460
N          4.23580       -2.10240       -0.03190
H          1.29120        1.68080       -0.05970
H         -0.42480        2.01890       -0.35990
H          0.13270        1.59520        1.27210
H         -1.01370       -0.39410        0.06120
H          0.32440       -1.58070       -1.74310
H          1.57380       -0.23700       -1.68100
