16
gdb 14719	10.4381	0.57602	0.5515	2.3039	83.54	-0.2407	-0.009	0.2316	1899.8053	0.127766	-346.54694	-346.537516	-346.536572	-346.581748	32.647
O         -0.02850        1.44430        0.01020
C          0.03660        0.02850        0.00180
C         -1.39210       -0.49960        0.01270
C         -1.43590       -2.04110        0.00480
C         -2.78970       -2.57250        0.01490
C         -3.92210       -2.99940        0.02380
C         -5.19590       -3.47850        0.03340
C         -6.32580       -3.90510        0.04140
H          0.86910        1.78910        0.00300
H          0.56470       -0.34350       -0.89230
H          0.58180       -0.35330        0.88140
H         -1.90830       -0.11900        0.89960
H         -1.92520       -0.10950       -0.85980
H         -0.90660       -2.42090       -0.88000
H         -0.88970       -2.43040        0.87500
H         -7.31960       -4.27790        0.04870
