13
gdb 15485	3.76533	1.87313	1.2607	6.7586	63.1	-0.2439	-0.074	0.1699	887.9499	0.095701	-398.651897	-398.644748	-398.643804	-398.683811	25.167
O         -0.16440        0.00660        0.00120
C         -0.02360        1.20300        0.00790
C          1.26500        1.91920        0.00050
C          1.38760        3.25430        0.00980
C          2.83350        3.65790       -0.00150
N          3.50050        2.38070       -0.01910
C          2.64160        1.29730       -0.01800
O          2.96030        0.13330       -0.02960
H         -0.90250        1.88950        0.02130
H          0.57990        3.97640        0.02350
H          3.06640        4.27460       -0.88270
H          3.08430        4.25970        0.88510
H          4.49860        2.25750       -0.02790
