16
gdb 19422	4.18043	2.0034	1.62785	1.9209	70.18	-0.2375	0.0028	0.2402	810.4823	0.131718	-346.577786	-346.571504	-346.57056	-346.607913	25.512
C          0.05350        1.52000       -0.00640
O          1.20710        0.67910        0.00350
C         -0.09070        0.05620        0.00220
C         -0.49100       -0.75100        1.18980
C         -0.97960       -1.93800        0.81200
C         -1.02870       -2.07330       -0.67360
C         -1.94310       -1.08770       -1.38140
C         -0.48130       -0.76140       -1.20670
H         -0.11980        2.08930        0.90680
H         -0.12480        2.06720       -0.93180
H         -0.39910       -0.38170        2.20350
H         -1.34370       -2.70770        1.48250
H         -0.82140       -3.02760       -1.14400
H         -2.27090       -1.33850       -2.38520
H         -2.67500       -0.55790       -0.78070
H          0.16350       -0.71510       -2.07550
