16
gdb 8023	3.38789	1.97237	1.53309	3.8424	64.74	-0.2341	-0.035	0.1992	855.9756	0.129437	-383.719945	-383.712624	-383.71168	-383.75154	27.471
C         -0.26640        1.58540       -0.01620
C          0.03600        0.10510        0.01220
C         -1.09970       -0.89730        0.29320
O         -0.30110       -1.61610        1.26450
C          0.77070       -0.65000        1.17980
C          1.82260       -1.14100        0.16060
O          2.83320       -1.77240        0.24270
C          1.07830       -0.45390       -1.00570
H          0.65380        2.17950       -0.01540
H         -0.82890        1.85220       -0.91860
H         -0.86290        1.88780        0.85050
H         -1.98640       -0.45620        0.76700
H         -1.41690       -1.53520       -0.54040
H          1.07240       -0.24650        2.15050
H          0.70380       -1.11200       -1.79500
H          1.69940        0.32110       -1.46830
