18
gdb 14159	3.35631	2.29951	1.84484	1.8022	71.	-0.232	-0.0004	0.2316	800.7802	0.153406	-347.757901	-347.750744	-347.7498	-347.788536	29.1
C         -0.07950        1.49800        0.00740
C         -0.05870       -0.03150       -0.00630
C         -1.43910       -0.57160       -0.36160
C          1.24510       -0.62600       -0.68520
O          1.98360       -0.20420        0.50670
C          0.77060       -0.64920        1.19580
C          0.77930       -2.15000        0.86760
C          1.10590       -2.13400       -0.42710
H          0.89940        1.90660        0.25820
H         -0.38190        1.88570       -0.97240
H         -0.81100        1.86450        0.73700
H         -1.74910       -0.20090       -1.34540
H         -1.47420       -1.66140       -0.38120
H         -2.18220       -0.21750        0.36220
H          1.65380       -0.26030       -1.62750
H          0.68150       -0.30790        2.22740
H          0.55280       -2.96960        1.53320
H          1.22700       -2.93670       -1.13930
