14
gdb 20487	5.07225	1.98819	1.45443	1.411	62.88	-0.2298	0.0171	0.2469	800.2056	0.111128	-378.724443	-378.71831	-378.717365	-378.755019	22.74
C         -0.05560        1.50030        0.10060
O          1.24880        1.93780       -0.29860
C          2.13130        0.83720       -0.61630
C          1.29440       -0.38090       -0.39290
C          0.05010        0.01410        0.01570
N         -0.68450       -1.10000        0.21010
N          0.02840       -2.22440       -0.05510
C          1.23520       -1.78880       -0.42280
H         -0.27400        1.86650        1.11490
H         -0.81140        1.92510       -0.57670
H          2.47690        0.95150       -1.65300
H          3.01280        0.89330        0.03720
H         -1.63950       -1.19430        0.51000
H          1.99480       -2.50860       -0.68880
