14
gdb 3166	6.10433	2.45847	2.06811	1.7383	57.52	-0.2361	0.0237	0.2598	643.9615	0.114788	-324.573338	-324.567462	-324.566518	-324.603184	22.122
C          0.07620        1.54950        0.03070
C          1.30070        0.65340       -0.09180
C         -0.06320        0.06300        0.05180
C         -0.56470       -0.78310        1.22790
N         -1.39300       -1.82920        0.60160
C         -1.34870       -1.59840       -0.64340
O         -0.63020       -0.55200       -1.11680
H         -0.08720        2.08850        0.95860
H         -0.25120        2.06840       -0.86320
H          1.77260        0.58740       -1.06570
H          1.97930        0.57630        0.75190
H          0.25310       -1.24430        1.79350
H         -1.16870       -0.20380        1.93580
H         -1.84980       -2.17840       -1.41020
