18
gdb 13459	3.43343	1.35316	1.25859	1.6028	64.41	-0.2288	0.0604	0.2891	1062.2537	0.152046	-422.038155	-422.029364	-422.02842	-422.071779	32.028
C         -0.33750        1.42280       -0.00470
C         -0.37450       -0.04950        0.36140
O         -1.24510       -0.71430       -0.56070
C         -1.38920       -2.07700       -0.32930
C         -2.26570       -2.54810        0.82900
O         -2.83510       -1.60720        1.67940
C         -2.79070       -2.57530       -0.59250
O         -3.75150       -1.59360       -0.86660
H          0.33430        1.96210        0.66960
H          0.01760        1.55930       -1.03020
H         -1.33420        1.86650        0.07700
H          0.63040       -0.49240        0.29100
H         -0.74590       -0.20070        1.38080
H         -0.54030       -2.69480       -0.62450
H         -2.00160       -3.48000        1.32200
H         -3.59330       -1.24780        1.19260
H         -2.96010       -3.51000       -1.11800
H         -3.25560       -0.79990       -1.11720
