15
gdb 16848	3.88787	2.01713	1.52259	4.5641	67.68	-0.2374	-0.0525	0.1849	819.761	0.12108	-362.669279	-362.662891	-362.661946	-362.699913	24.9
O          0.02200        0.00760       -0.51450
C          0.00450        1.13090       -0.05380
C         -1.32280        1.82660        0.26310
C         -1.23620        2.94870        1.27100
N         -0.54540        2.64490        2.52640
C          0.08980        3.57530        1.54740
C          1.27950        3.05000        0.84320
C          1.24480        1.91200        0.13750
H         -1.69410        2.22620       -0.69070
H         -2.03770        1.06150        0.58010
H         -2.10710        3.59930        1.31950
H         -0.95260        3.18540        3.28650
H          0.11390        4.62790        1.81310
H          2.20740        3.60800        0.93970
H          2.13340        1.49710       -0.32690
