22
gdb 10062	1.83076	1.48941	0.87276	0.2329	87.34	-0.241	0.0604	0.3014	1417.2138	0.197619	-313.063509	-313.052635	-313.051691	-313.10092	37.397
C          0.80710       -0.19600       -1.31620
C         -0.01510       -0.06640       -0.03310
C          0.69300       -0.62170        1.22530
C         -0.13030       -0.32740        2.50160
C          0.57480       -0.72260        3.80000
C          0.97680       -2.05210        1.09090
C          1.18390       -3.23410        0.97860
C          1.44670       -4.66080        0.84370
H          1.04070       -1.24350       -1.52750
H          0.26290        0.21120       -2.17390
H          1.75540        0.34750       -1.23490
H         -0.24920        0.98950        0.15130
H         -0.97470       -0.58440       -0.15130
H          1.65360       -0.09210        1.32350
H         -0.35660        0.74610        2.51550
H         -1.09170       -0.84970        2.42550
H          0.79820       -1.79330        3.81400
H          1.52140       -0.18270        3.91630
H         -0.04800       -0.49340        4.67030
H          1.98150       -5.05240        1.71630
H          0.51650       -5.23140        0.74390
H          2.05920       -4.87200       -0.04000
