15
gdb 11580	6.27316	0.83615	0.78247	2.4996	76.23	-0.2546	-0.0534	0.2012	1432.7389	0.11739	-362.623194	-362.614595	-362.613651	-362.657786	29.123
C         -0.24210        1.46900        0.00220
C          0.06030       -0.01550        0.04080
O          0.25490       -0.62420        1.07260
C          0.10340       -0.67650       -1.24770
C          0.14640       -1.23890       -2.31800
C          0.17770       -1.92830       -3.57010
C          1.22500       -2.97830       -3.79610
N         -0.16920       -3.37200       -3.62460
H          0.50680        1.99090       -0.60310
H         -1.21420        1.64240       -0.47200
H         -0.24560        1.86650        1.01810
H         -0.17850       -1.36820       -4.43020
H          1.61980       -3.10200       -4.80020
H          1.93150       -3.15830       -2.99170
H         -0.32010       -3.71080       -2.67700
