16
gdb 1039	6.59188	1.86801	1.60406	1.8514	67.23	-0.1938	0.0483	0.2422	804.5223	0.138636	-288.685117	-288.678228	-288.677284	-288.716282	25.594
C          0.03390        1.53260       -0.23020
C         -0.02740        0.03520        0.12330
C         -1.41440       -0.52590        0.15490
C         -2.20120       -0.94420        1.20650
C         -3.45380       -1.36910        0.67930
C         -3.40060       -1.20000       -0.68310
N         -2.16300       -0.68780       -0.98960
H          1.06780        1.89240       -0.23490
H         -0.39110        1.72740       -1.22070
H         -0.53400        2.12470        0.49340
H          0.59420       -0.52780       -0.58730
H          0.42200       -0.12430        1.10860
H         -1.90300       -0.94420        2.24440
H         -4.29280       -1.75720        1.23610
H         -4.12620       -1.39960       -1.45520
H         -1.84300       -0.47330       -1.91800
