16
gdb 12361	2.89723	2.22466	1.51643	2.5571	67.51	-0.2351	-0.0547	0.1804	851.2648	0.131726	-383.773664	-383.766418	-383.765474	-383.805239	27.435
O          0.13890        1.30970        0.06210
C         -0.04020       -0.10680        0.01950
C         -1.53620       -0.38550       -0.03710
C         -2.15070        0.09070       -1.36010
C         -1.35250       -0.36550       -2.54640
C         -0.05910       -0.71170       -2.47700
C          0.70390       -0.63100       -1.22050
O          1.89490       -0.87580       -1.15780
H          1.08830        1.47700        0.04590
H          0.41210       -0.58140        0.90130
H         -1.68680       -1.46670        0.06550
H         -2.02620        0.09670        0.81440
H         -3.18600       -0.25610       -1.45140
H         -2.19750        1.18840       -1.37370
H         -1.86140       -0.39170       -3.50780
H          0.49900       -1.03240       -3.35120
