8
gdb 321	6.57168	2.87944	2.00217	3.1111	50.23	-0.28	-0.0898	0.1902	559.9421	0.04691	-266.763445	-266.757444	-266.7565	-266.792861	20.497
O          0.00310       -0.07660        0.00280
C         -0.01340        1.13740        0.00670
C          1.19480        1.93610        0.00040
C          2.20300        2.59320       -0.00480
C         -1.24290        1.90290        0.01770
C         -2.26860        2.53240        0.02690
H          3.09740        3.16800       -0.00940
H         -3.17810        3.08270        0.03490
