18
gdb 8529	3.35371	2.20806	1.61612	1.7167	71.86	-0.2505	0.0629	0.3133	840.5906	0.153399	-347.730213	-347.722819	-347.721874	-347.761538	28.892
C         -0.03210        1.50330       -0.08430
C         -0.00240       -0.00400       -0.04940
C          0.55890       -0.92170       -1.15850
C          0.06910       -1.89610       -0.07690
C          0.53690       -0.96170        1.09080
C         -0.84360       -1.08390        1.77040
O         -1.30920       -0.11800        2.67730
C         -1.18030       -1.01470        0.26560
H          0.98220        1.90750       -0.17840
H         -0.61130        1.85840       -0.94420
H         -0.47660        1.95040        0.81190
H          0.01820       -0.92670       -2.11150
H          1.63980       -0.87670       -1.33230
H          0.09530       -2.98580       -0.06130
H          1.53520       -0.93770        1.53290
H         -1.04130       -2.05130        2.24380
H         -1.15730        0.75520        2.30460
H         -2.14890       -1.05130       -0.23740
