10
gdb 142	15.97776	3.43771	3.25625	4.1966	43.5	-0.2931	0.0289	0.322	407.3682	0.080403	-210.071468	-210.066701	-210.065757	-210.098937	16.544
N          0.00460       -1.14020       -0.01290
C          0.00350        0.01670        0.00350
C          0.00470        1.45260        0.02500
C          0.49670        2.18230        1.26490
C          1.32870        2.20040        0.02040
H         -0.81820        1.90330       -0.51870
H         -0.04500        3.07810        1.54500
H          0.83050        1.57250        2.09540
H          2.23180        1.60300       -0.00060
H          1.36840        3.10880       -0.56910
