17
gdb 6652	6.80655	0.85383	0.80857	3.6243	71.95	-0.2461	0.0281	0.2742	1404.2788	0.13964	-363.868019	-363.858301	-363.857356	-363.904478	33.074
C         -0.14290        1.41780        0.16330
C         -0.21230       -0.10060        0.21190
O          0.49030       -0.76240        0.95540
N         -1.11200       -0.67740       -0.64000
C         -1.29430       -2.11620       -0.69320
C         -2.18000       -2.64890        0.45770
C         -2.39500       -4.08580        0.36080
C         -2.55420       -5.27130        0.24240
H         -0.40160        1.81450        1.14880
H          0.88830        1.71320       -0.04580
H         -0.80100        1.86730       -0.58490
H         -1.70940       -0.09080       -1.19720
H         -1.73790       -2.37620       -1.65770
H         -0.31140       -2.58850       -0.62910
H         -1.68850       -2.40010        1.40430
H         -3.14360       -2.12400        0.44790
H         -2.69900       -6.31960        0.15760
