16
gdb 1869	5.87842	1.96118	1.5538	3.8461	60.89	-0.2362	0.0379	0.2741	793.3054	0.138559	-325.833302	-325.826478	-325.825534	-325.863985	25.453
C         -0.05100        1.54960        0.00650
C          0.06040        0.02780        0.00640
C          0.90430       -0.53840       -1.16320
N          1.38480       -1.79850       -0.62760
C          1.38450       -1.87830        0.74180
O          1.83190       -2.79030        1.40070
C          0.73170       -0.58710        1.24780
H          0.93530        2.01630        0.10960
H         -0.49960        1.91620       -0.92340
H         -0.67370        1.89940        0.83580
H         -0.94430       -0.40300       -0.08160
H          0.30820       -0.68630       -2.06960
H          1.73230        0.14260       -1.41530
H          1.89700       -2.47590       -1.17020
H          1.52900        0.06020        1.63600
H          0.04990       -0.79530        2.07430
