16
gdb 17160	4.18643	1.89823	1.55787	2.9555	70.28	-0.2438	-0.0269	0.2169	830.55	0.13081	-346.535583	-346.529083	-346.528139	-346.566342	25.129
O         -0.05130       -0.01080        0.06650
C          0.05590        1.19080        0.00710
C          1.35010        1.91190        0.00640
C          2.77690        1.34670        0.07650
C          2.97400        2.87360        0.00200
C          1.77250        3.07380       -0.98670
C          1.14140        4.17770       -0.11840
C          1.71900        3.17240        0.89480
H         -0.84550        1.84400       -0.05260
H          3.06080        0.85540        1.01130
H          3.11180        0.76130       -0.78430
H          3.89900        3.45200       -0.00200
H          1.80780        2.97700       -2.07300
H          1.62520        5.15880       -0.15610
H          0.05410        4.28910       -0.15520
H          1.69240        3.18990        1.98550
