13
gdb 3754	7.13247	2.20447	1.7057	1.318	57.15	-0.2105	0.0095	0.22	706.6413	0.104073	-336.821088	-336.81443	-336.813486	-336.852076	23.372
C          0.00700        1.37880        0.07790
N          0.00190       -0.06520        0.02350
N         -0.06620       -0.73350       -1.11430
C         -0.07020       -2.01420       -0.73660
C          0.00220       -2.06280        0.66920
N         -0.03950       -3.16360        1.51750
N          0.05070       -0.81250        1.13350
H          0.89750        1.73240        0.60420
H          0.01070        1.74310       -0.94840
H         -0.88220        1.74380        0.59980
H         -0.12320       -2.81230       -1.45930
H          0.45530       -3.96910        1.16070
H          0.27240       -2.93570        2.45230
