16
gdb 17999	3.68919	1.88591	1.51095	2.9029	64.36	-0.2432	-0.027	0.2162	848.3137	0.130382	-383.707305	-383.700261	-383.699317	-383.739168	25.836
O         -0.20140        0.19570        0.61090
C          0.26670        0.83470       -0.29820
C          1.21310        1.99330       -0.15240
C          0.80700        3.35370       -0.82950
C          1.03260        4.05740        0.53340
O         -0.17460        4.18710        1.29860
C          0.10010        2.96020        2.02660
C          1.38530        2.70490        1.21540
H          0.01280        0.59240       -1.35750
H          2.17810        1.65430       -0.55010
H          1.47360        3.66880       -1.63510
H         -0.22910        3.42310       -1.16900
H          1.64790        4.96090        0.55090
H          0.28490        3.16860        3.08740
H         -0.70250        2.22490        1.93710
H          2.29930        2.50800        1.77250
