17
gdb 3017	6.21159	1.57085	1.43791	1.5106	60.38	-0.2641	0.0845	0.3486	892.1645	0.147358	-346.834331	-346.82656	-346.825616	-346.866232	28.204
C          0.04160        1.50160        0.15120
C          0.02260       -0.01820       -0.01960
C          0.67950       -0.47710       -1.33130
O          2.02120       -0.03120       -1.43530
C          0.62230       -1.99170       -1.47080
C          1.58940       -2.72630       -2.28970
O          1.72270       -2.68020       -0.85850
H          1.06610        1.87810        0.09850
H         -0.53550        1.99460       -0.63940
H         -0.38810        1.79760        1.11270
H          0.54690       -0.50060        0.81620
H         -1.01000       -0.39070        0.00570
H          0.14320       -0.02570       -2.17740
H          2.53710       -0.63740       -0.88480
H         -0.35040       -2.44740       -1.28230
H          1.32450       -3.70130       -2.69400
H          2.34520       -2.16880       -2.83680
