15
gdb 8866	3.8982	1.28687	1.08393	4.177	63.57	-0.2794	-0.0864	0.1931	1086.2459	0.115517	-399.802599	-399.79344	-399.792496	-399.837178	30.602
C          0.03450        1.41950        0.02920
O         -0.09710        0.01520       -0.05990
C          0.58710       -0.56760       -1.13130
C          2.09450       -0.74590       -0.86770
C         -0.06550       -1.92150       -1.39930
O         -0.91580       -2.43560       -0.72700
C          0.44630       -2.60250       -2.61430
N          0.83720       -3.12330       -3.56990
H          1.06380        1.73300        0.25230
H         -0.28900        1.91430       -0.89890
H         -0.61310        1.74270        0.84660
H          0.45690        0.02570       -2.05550
H          2.56870        0.23000       -0.74170
H          2.24530       -1.32940        0.04450
H          2.58610       -1.25200       -1.70280
