24
gdb 6053	2.86929	1.41949	1.23554	1.3356	80.98	-0.2584	0.0667	0.3251	1162.9722	0.22038	-351.420741	-351.410008	-351.409064	-351.455426	40.298
C          0.10620        1.58120        0.19970
C         -0.07150        0.08170       -0.06110
C          0.64090       -0.44750       -1.32990
C          0.07700        0.19760       -2.59900
O          2.01940       -0.04060       -1.29740
C          0.58960       -2.00690       -1.37080
C         -0.82810       -2.60090       -1.36670
C          1.40570       -2.59270       -2.53390
H          1.16390        1.85580        0.18190
H         -0.40800        2.18880       -0.55100
H         -0.30560        1.85190        1.17680
H          0.31710       -0.48070        0.80070
H         -1.13960       -0.15410       -0.11670
H          0.21400        1.28050       -2.56310
H          0.59740       -0.16970       -3.48610
H         -0.99080       -0.01040       -2.70850
H          2.42170       -0.43870       -0.51710
H          1.07720       -2.33040       -0.43670
H         -0.77470       -3.69450       -1.37570
H         -1.40520       -2.30950       -0.48550
H         -1.39130       -2.29770       -2.25600
H          2.38660       -2.11820       -2.60440
H          1.54830       -3.66910       -2.39310
H          0.89280       -2.45780       -3.49220
