13
gdb 11146	6.09574	1.38667	1.13761	3.621	70.32	-0.2349	-0.0439	0.191	975.6267	0.095891	-357.631921	-357.624752	-357.623807	-357.663379	26.514
N         -0.04330        1.29060        0.00660
C          0.00700        0.02270        0.00050
C         -1.18260       -0.93510        0.00250
N         -0.63820       -2.29680       -0.00680
C          0.63800       -2.16260       -0.01320
N          1.10020       -0.84460       -0.00930
C          1.58120       -3.23060       -0.02330
C          2.40880       -4.10220       -0.03200
H          0.88630        1.71360        0.00350
H         -1.81200       -0.78130        0.88590
H         -1.82160       -0.77310       -0.87250
H          2.06880       -0.57260       -0.01380
H          3.12480       -4.88730       -0.03960
