15
gdb 12976	2.87226	2.73293	1.6775	2.7414	67.23	-0.2408	-0.0516	0.1892	781.1677	0.11942	-362.671302	-362.664433	-362.663489	-362.702115	26.167
C         -0.01960        1.52420        0.00640
C          0.02720        0.01870       -0.00770
C          0.33130       -0.76710        1.23400
N          1.31640       -0.67930        0.13030
C          1.21870       -1.80760       -0.73260
C          0.10970       -1.84160       -1.48960
C         -0.74870       -0.70110       -1.10430
O         -1.80850       -0.34670       -1.57080
H          0.56650        1.93420        0.83220
H          0.37050        1.93160       -0.93110
H         -1.05860        1.85070        0.10650
H          0.58940       -0.21900        2.13600
H         -0.15470       -1.72670        1.38540
H          2.02020       -2.53590       -0.68850
H         -0.15720       -2.58120       -2.23070
