17
gdb 14011	4.02663	1.3554	1.22561	3.4489	70.26	-0.2453	-0.0265	0.2188	1028.3427	0.141883	-363.834472	-363.826834	-363.82589	-363.866868	28.275
O         -0.39910        0.59230        0.80330
C          0.21190        0.90320       -0.18910
C          1.38730        1.81280       -0.19360
N          2.28160        1.67460       -1.37320
C          1.52300        2.89140       -1.22750
C          0.46920        3.42010       -2.21150
C          0.73630        4.84550       -1.64250
C          2.02250        4.31430       -0.94140
H         -0.06670        0.52790       -1.19860
H          1.81640        2.01130        0.78570
H          3.25010        1.80580       -1.08980
H          0.80340        3.30580       -3.24670
H         -0.54760        3.03190       -2.12640
H          0.87390        5.64590       -2.37090
H         -0.02580        5.15280       -0.92330
H          2.18070        4.59150        0.10360
H          2.93130        4.54440       -1.50790
