13
gdb 421	5.19024	3.89243	2.45819	2.5239	50.92	-0.2615	0.0284	0.2899	537.9634	0.108616	-286.493052	-286.487128	-286.486184	-286.522434	21.067
C         -0.14600        1.54320        0.08450
C          0.01460        0.03240       -0.02710
C          0.89390       -0.54050       -1.16280
O          1.79620       -1.13320       -0.17660
C          1.05820       -0.61350        0.86810
N          1.24200       -0.66920        2.10650
H          0.81840        2.05090       -0.01700
H         -0.81810        1.92500       -0.69040
H         -0.56240        1.80690        1.06050
H         -0.95480       -0.46760        0.05340
H          0.44650       -1.31000       -1.79630
H          1.41890        0.19910       -1.77400
H          2.08600       -1.19620        2.33670
