16
gdb 5693	4.68054	2.03936	1.45986	1.5286	71.09	-0.17	0.0552	0.2252	835.0856	0.134989	-342.808753	-342.802358	-342.801414	-342.839049	25.394
C          0.00180        1.39500       -0.15250
C          1.46530        1.89660        0.11740
C          2.22480        0.60210       -0.00190
C          1.32820       -0.42870        0.01300
N         -0.04170       -0.09260        0.04330
N          1.98880       -1.61790       -0.05610
C          3.35020       -1.34300       -0.10800
C          3.52400        0.02490       -0.07670
H         -0.74530        1.87760        0.48220
H         -0.26280        1.59900       -1.19510
H          1.74450        2.66030       -0.61540
H          1.56970        2.35620        1.11090
H         -0.46450       -0.31860        0.94100
H          1.57300       -2.53030       -0.11800
H          4.06770       -2.14480       -0.16990
H          4.47740        0.53080       -0.10440
