12
gdb 4952	3.25911	2.53441	1.42572	5.3296	60.54	-0.2245	-0.0438	0.1806	786.8908	0.085463	-414.695819	-414.689393	-414.688449	-414.726643	24.002
N         -0.04320        1.25510        0.35670
C         -0.01280        0.05170       -0.01710
O          1.16490       -0.55240       -0.41090
C          1.18750       -1.86080       -0.81560
C          0.08960       -2.61200       -0.85070
N         -1.13290       -2.06700       -0.46700
C         -1.29490       -0.76850       -0.04070
O         -2.36530       -0.31650        0.28770
H          0.89280        1.66390        0.31580
H          2.17590       -2.19290       -1.09260
H          0.09870       -3.64390       -1.16830
H         -1.97520       -2.62260       -0.48750
