20
gdb 16174	4.21983	1.54714	1.34572	1.7336	74.09	-0.2509	0.0883	0.3392	1005.4285	0.177968	-349.016059	-349.00818	-349.007236	-349.048194	30.304
C          0.29850        1.47190        0.23820
C         -0.16930        0.05300       -0.11280
C          0.47880       -0.48680       -1.36350
C          0.17680        0.10570       -2.73480
C          0.85000       -0.86660       -3.73260
C          0.86000       -2.24350       -3.02430
C          0.89460       -1.88490       -1.55270
O          1.86450       -0.87300       -1.23380
H          1.38530        1.49590        0.36200
H          0.03260        2.18920       -0.54490
H         -0.15870        1.81410        1.17120
H          0.06100       -0.62330        0.71760
H         -1.25920        0.03950       -0.24330
H         -0.91200        0.12980       -2.87260
H          0.54160        1.13150       -2.84490
H          0.33970       -0.89530       -4.69830
H          1.87780       -0.54570       -3.91320
H         -0.05690       -2.81100       -3.22900
H          1.70580       -2.86730       -3.33020
H          0.74920       -2.64480       -0.78750
