15
gdb 8860	2.99481	1.48739	1.05929	1.8794	63.85	-0.2927	-0.1013	0.1914	1078.1764	0.116284	-399.820311	-399.811421	-399.810477	-399.854304	30.606
C         -0.03290        1.55150       -0.06980
C          0.07850        0.02570       -0.04650
C          0.65660       -0.47720        1.29420
O         -0.13570       -0.07910        2.37650
C          0.79470       -1.98930        1.29530
O          0.21640       -2.69120        2.09130
C          1.67910       -2.57220        0.27530
N          2.38670       -3.01160       -0.52670
H          0.95290        2.02020        0.02090
H         -0.48150        1.88970       -1.00790
H         -0.65380        1.90220        0.75770
H         -0.91010       -0.42820       -0.18340
H          0.71660       -0.32310       -0.86650
H          1.67780       -0.06840        1.40160
H         -0.43000       -0.88780        2.82190
