15
gdb 18392	3.45628	2.4497	1.6169	1.6352	62.25	-0.2346	0.0167	0.2514	775.7613	0.12103	-399.776589	-399.770262	-399.769318	-399.807062	24.429
C         -0.09080        1.39440        0.16600
C          1.34880        0.98340        0.06380
O          2.07900        0.94300        1.26080
C          2.64030       -0.29810        1.52360
O          1.76930       -1.16400        2.24890
C          0.56160       -1.50250        1.72870
N         -0.10100       -1.08640        0.73870
C          0.26140       -0.04410       -0.16340
H         -0.45280        1.57910        1.17120
H         -0.52040        2.02130       -0.60660
H          1.93790        1.31340       -0.79060
H          2.95540       -0.80140        0.59910
H          3.49120       -0.14810        2.19050
H          0.13150       -2.28210        2.35660
H          0.09370       -0.33350       -1.19740
