16
gdb 13901	3.12635	1.66831	1.55618	3.4859	62.79	-0.2397	-0.034	0.2057	905.6775	0.128204	-420.87741	-420.869137	-420.868192	-420.910118	30.519
C          0.04550        1.40850        0.04400
C          0.01030       -0.09970       -0.03120
O          1.05960       -0.75060       -0.10790
C         -1.28750       -0.76560       -0.01120
C         -1.38820       -2.11120       -0.81670
O         -0.35930       -2.51620       -1.63620
C         -1.32690       -2.18630        0.65950
O         -0.23550       -2.66780        1.34590
H          1.07770        1.75900        0.01920
H         -0.51320        1.84150       -0.79310
H         -0.44060        1.75210        0.96390
H         -2.17050       -0.14070        0.05730
H         -2.35160       -2.26570       -1.29300
H          0.46950       -2.16610       -1.26870
H         -2.24820       -2.39230        1.19580
H          0.56160       -2.27900        0.94840
