18
gdb 19014	4.74159	1.90646	1.72474	1.3777	71.08	-0.2344	0.1	0.3344	823.4285	0.155661	-347.765916	-347.759562	-347.758617	-347.796082	26.002
C         -0.09320        1.53400       -0.06660
C          0.02910        0.02050        0.03190
O          0.86970       -0.49520       -1.02710
C          1.86940       -1.19190       -0.31460
C          1.25290       -1.96370        0.89090
C          2.55480       -1.72400        1.68620
C          2.31160       -0.39040        0.94500
C          0.77700       -0.51520        1.25140
H          0.88230        2.01470        0.05370
H         -0.49660        1.82030       -1.04200
H         -0.76740        1.91630        0.70750
H         -0.96500       -0.43990       -0.05970
H          2.58870       -1.65130       -0.99210
H          0.63470       -2.86160        0.85280
H          2.45990       -1.69810        2.77460
H          3.43260       -2.30370        1.38550
H          2.91560        0.51720        0.97240
H          0.39500       -0.29460        2.24890
