22
gdb 16390	2.86563	2.17526	1.65337	0.0686	80.75	-0.2882	0.0854	0.3736	914.0957	0.202624	-313.06804	-313.060462	-313.059518	-313.099206	31.019
C         -0.14530        1.54560       -0.09550
C          0.06950        0.03270       -0.03620
C          0.96050       -0.53710       -1.16550
C          1.19480       -1.99730       -0.68370
C          1.99000       -1.28030        0.44450
C          2.40160       -0.25460       -0.65090
C          0.86530       -0.54170        1.20820
C          1.35620        0.46170        2.25250
H          0.79580        2.10360       -0.10220
H         -0.69190        1.81430       -1.00620
H         -0.73390        1.90220        0.75600
H         -0.91720       -0.44350       -0.08220
H          0.66010       -0.30900       -2.18990
H          0.32070       -2.59260       -0.39950
H          1.83740       -2.56840       -1.35830
H          2.73180       -1.80460        1.04990
H          3.16640       -0.65100       -1.32300
H          2.66910        0.76240       -0.35240
H          0.23900       -1.27810        1.72590
H          2.03060        1.21230        1.82950
H          0.52280        0.99450        2.72170
H          1.90180       -0.05740        3.04830
