15
gdb 18953	6.6355	1.50905	1.46492	4.0451	67.33	-0.233	0.0194	0.2524	864.3281	0.11953	-362.585554	-362.579369	-362.578425	-362.616015	23.859
O          0.05930        0.01940       -0.44460
C          0.03060        1.19180       -0.13820
N          1.05350        1.87030        0.46660
C          2.50650        1.64710        0.24240
C          2.60540        2.71860       -0.90600
C          3.76830        3.45020       -0.20670
C          2.87480        2.98700        0.96240
C          1.56200        3.23440        0.14930
H         -0.87560        1.82500       -0.24180
H          2.97990        0.67120        0.31390
H          2.42060        2.54440       -1.96630
H          4.75410        2.98410       -0.28150
H          3.84030        4.52870       -0.37080
H          2.99390        3.12220        2.03690
H          0.93080        4.12180        0.12020
