16
gdb 10092	2.58376	1.67633	1.02972	5.2761	66.73	-0.2541	-0.0327	0.2214	1092.8489	0.129025	-417.08022	-417.071293	-417.070349	-417.114164	30.824
C          0.07560        1.34130        0.01660
N          0.04770       -0.10630        0.09990
C         -1.05350       -0.74060        0.16210
C         -0.98630       -2.25640        0.24690
O          0.34150       -2.69230        0.24040
N         -2.30650       -0.11320        0.15570
C         -3.56140       -0.68540        0.21880
O         -3.80420       -1.86360        0.29180
H          1.11250        1.68040       -0.02710
H         -0.43120        1.71830       -0.88500
H         -0.38940        1.82000        0.89220
H         -1.51210       -2.58360        1.15500
H         -1.55330       -2.68310       -0.59250
H          0.87270       -1.87990        0.18140
H         -2.29380        0.89490        0.09840
H         -4.34640        0.09500        0.19320
