17
gdb 3371	3.83868	2.65663	2.58078	1.3047	62.84	-0.244	0.07	0.314	654.6899	0.150701	-309.714859	-309.708461	-309.707516	-309.744759	25.055
O         -0.38040        1.57130        0.08540
C         -0.14900        0.18960        0.04290
C         -0.42920       -0.72130        1.21590
C         -1.25630       -0.18780        2.37900
C         -2.51840        0.45320        1.74990
C         -2.69670       -0.23070        0.37270
C         -1.31880       -0.74670       -0.02330
H          0.29370        1.96640        0.64820
H          0.70750       -0.09200       -0.57110
H          0.28480       -1.51340        1.41830
H         -1.52750       -1.03000        3.02640
H         -0.70710        0.52460        3.00580
H         -3.39950        0.33210        2.38670
H         -2.35630        1.52170        1.60610
H         -3.37750       -1.08680        0.44770
H         -3.12110        0.45400       -0.36840
H         -1.26850       -1.55940       -0.74040
