19
gdb 16491	2.73315	2.60625	1.74762	1.6707	74.49	-0.2308	0.0916	0.3225	841.3267	0.165829	-327.868773	-327.861336	-327.860392	-327.899926	29.261
C          0.00490        1.60440       -0.04180
C          0.08630        0.08310       -0.00260
C          1.13600       -0.70330       -0.84610
C          2.48190       -0.20360       -0.30220
N          2.16660       -0.82500        1.02610
C          1.20350       -1.74040        0.33980
C          0.67020       -0.66300        1.20630
C          0.14480       -0.70590        2.60660
H          0.95600        2.08120        0.21010
H         -0.29520        1.95430       -1.03600
H         -0.74180        1.96800        0.67270
H         -0.90310       -0.34480       -0.20520
H          0.96360       -0.90450       -1.90250
H          3.33640       -0.73570       -0.72920
H          2.69260        0.87170       -0.29030
H          1.22550       -2.82010        0.41500
H          0.71210       -1.42220        3.20690
H          0.22910        0.27450        3.08890
H         -0.91070       -0.99930        2.62010
