18
gdb 1521	7.45443	1.25944	1.10695	1.2804	65.95	-0.2566	0.039	0.2956	1103.4198	0.158861	-326.998454	-326.98982	-326.988876	-327.031941	30.074
C          0.06570        1.53330       -0.14210
C         -0.00580        0.02500        0.00910
O          0.64200       -0.55390       -1.13310
C          0.68830       -1.90020       -1.19110
N          0.17990       -2.61680       -0.27400
C          1.40430       -2.32720       -2.45670
C          1.52600       -3.83730       -2.64620
H          1.10450        1.87310       -0.18620
H         -0.44000        1.85910       -1.05580
H         -0.41920        2.01690        0.71120
H          0.49510       -0.32110        0.91940
H         -1.03900       -0.33490        0.05630
H          0.30440       -3.60550       -0.47740
H          0.87570       -1.87300       -3.30330
H          2.39530       -1.85770       -2.44880
H          2.08710       -4.30010       -1.82790
H          0.54250       -4.31560       -2.69620
H          2.05200       -4.06360       -3.57780
