16
gdb 9217	7.99525	0.77477	0.72946	3.3529	63.45	-0.255	-0.0246	0.2304	1485.7457	0.127379	-420.920642	-420.911342	-420.910398	-420.956519	30.252
C          0.07260        1.38190        0.00690
O         -0.03790       -0.04150        0.15220
C         -1.26440       -0.54960       -0.06390
O         -2.22910        0.11640       -0.34420
C         -1.25120       -2.06190        0.06630
C         -2.65020       -2.63090        0.32760
C         -2.71840       -4.11540        0.05680
O         -3.16150       -4.93910        0.81320
H          1.11520        1.62030        0.21600
H         -0.19500        1.68720       -1.00770
H         -0.58690        1.89210        0.71310
H         -0.84870       -2.45670       -0.87740
H         -0.53760       -2.35050        0.84280
H         -2.98500       -2.43810        1.34980
H         -3.35100       -2.12950       -0.35350
H         -2.31950       -4.41240       -0.94350
