11
gdb 23696	3.91842	1.97036	1.31109	1.0023	55.08	-0.2541	-0.0506	0.2035	812.7551	0.074087	-438.758027	-438.752181	-438.751237	-438.788183	21.909
F          0.05910        0.05360        0.00320
C         -0.06570        1.36600        0.01130
N         -1.23040        1.89860        0.02970
C         -1.22810        3.27560        0.03640
C         -0.11430        4.05230        0.02530
C          1.20210        3.44770        0.00450
O          2.28910        3.98220       -0.00750
N          1.11020        2.02300       -0.00130
H         -2.21530        3.72700        0.05200
H         -0.16810        5.13250        0.03140
H          1.98240        1.50950       -0.01560
