15
gdb 1896	3.71564	3.07505	2.30073	1.7143	57.21	-0.2485	0.0843	0.3328	639.2956	0.124503	-345.59241	-345.586031	-345.585087	-345.622228	24.895
C         -0.01030        1.44960        0.11390
C         -0.05190       -0.03310       -0.06690
C          0.64020       -0.95420       -1.09700
C          0.02520       -1.84550       -0.00390
O          0.52730       -0.89330        1.02430
C         -1.27920       -1.00500       -0.06160
O         -2.10660       -0.99150        1.05090
H          1.01300        1.79330        0.29110
H         -0.39510        1.94800       -0.78130
H         -0.63280        1.74410        0.96460
H          0.22020       -1.00400       -2.10540
H          1.72940       -0.91150       -1.08820
H          0.16890       -2.90770        0.19370
H         -1.89380       -1.06230       -0.96310
H         -1.49920       -0.95760        1.80560
