16
gdb 1677	4.47106	1.80515	1.41321	3.9902	57.39	-0.2589	0.0193	0.2781	870.3957	0.135418	-362.955075	-362.946637	-362.945693	-362.987951	29.826
C         -0.00580        1.55370        0.11620
C         -0.01920        0.02830        0.00340
C          0.72300       -0.46280       -1.25550
O          2.05390       -0.01910       -1.26260
C          0.72920       -1.99790       -1.33830
N         -0.46450       -2.60570       -1.54300
O          1.77640       -2.61150       -1.20610
H          1.02230        1.92290        0.11440
H         -0.53170        2.01720       -0.72630
H         -0.49260        1.88430        1.03860
H          0.46700       -0.41910        0.87870
H         -1.05210       -0.34270       -0.01090
H          0.20500       -0.06800       -2.14600
H          2.58100       -0.83210       -1.17210
H         -1.30510       -2.08380       -1.71740
H         -0.49010       -3.60910       -1.62260
