15
gdb 6306	3.93077	1.17291	1.04916	3.8462	63.	-0.2676	0.0226	0.2902	1122.2785	0.118593	-396.036713	-396.027886	-396.026942	-396.070914	31.046
C         -0.12480        1.62780        0.05610
C          0.00050        0.09400        0.07510
N          0.72220       -0.41760        1.22880
C          2.09040       -0.60400        1.13430
N          2.69440       -0.92410        2.33750
O          2.70370       -0.47450        0.09170
C         -1.32480       -0.54390        0.00210
N         -2.37730       -1.01810       -0.04270
H          0.87730        2.06220        0.04550
H         -0.66470        1.95920       -0.83480
H         -0.66360        1.98750        0.93760
H          0.58590       -0.22180       -0.79400
H          0.31880       -0.24230        2.13640
H          2.15530       -1.43980        3.01670
H          3.64110       -1.25300        2.22280
