18
gdb 12524	3.27714	1.83415	1.27089	1.8596	75.	-0.2433	0.0093	0.2526	970.011	0.155379	-347.804792	-347.797188	-347.796244	-347.837255	29.153
O          0.61600        0.44740       -1.05670
C         -0.00880       -0.30210        0.00000
C          0.77680       -0.07200        1.26730
C          0.39780        0.28130        2.49570
C         -0.98620        0.48100        3.05580
C         -2.08580       -0.39350        2.43540
C         -2.37450       -0.09820        0.98520
C         -1.49600       -0.04810       -0.01370
H          0.56100        1.37660       -0.80520
H          0.15210       -1.34550       -0.31510
H          1.84450       -0.17630        1.08210
H          1.19850        0.44470        3.21580
H         -0.94910        0.28240        4.13410
H         -1.27070        1.53900        2.96290
H         -1.80210       -1.44840        2.55300
H         -3.00460       -0.26120        3.01610
H         -3.41920        0.07480        0.73510
H         -1.85920        0.15430       -1.01920
