24
gdb 7577	3.04028	1.49462	1.38352	0.0444	84.42	-0.2761	0.076	0.3521	1091.9082	0.222774	-314.27356	-314.264131	-314.263187	-314.306803	36.554
C          0.03050        1.61180       -0.00620
C          0.08120        0.08720        0.17250
C          0.72040       -0.28870        1.51750
C         -1.28920       -0.58590       -0.04670
C         -2.35260       -0.15730        0.97060
C         -1.84240       -0.51110       -1.51000
C         -2.16210       -2.02770       -1.45100
C         -1.24950       -2.14380       -0.20220
H          1.03960        2.03710        0.01160
H         -0.43080        1.89000       -0.95950
H         -0.53960        2.09410        0.79510
H          0.73640       -0.30840       -0.61770
H          0.16930        0.14080        2.36100
H          0.75400       -1.37410        1.65750
H          1.74770        0.08630        1.57570
H         -2.54210        0.92040        0.92910
H         -3.30460       -0.66140        0.77300
H         -2.05890       -0.40990        1.99470
H         -2.67720        0.17220       -1.69000
H         -1.05140       -0.28560       -2.23230
H         -3.21240       -2.22520       -1.22130
H         -1.88910       -2.62690       -2.32280
H         -0.24680       -2.50110       -0.45770
H         -1.62120       -2.73560        0.63920
