20
gdb 8682	2.37293	1.69602	1.26854	1.1507	76.86	-0.2628	0.0374	0.3002	1083.4874	0.173271	-348.977906	-348.967759	-348.966814	-349.012213	37.228
C         -0.08670        1.62890        0.00010
C          0.00400        0.10210       -0.01770
C          0.74040       -0.49800        1.19830
O         -0.03110       -0.11740        2.34670
C          0.84590       -2.04490        1.11170
C         -0.50020       -2.77330        1.08750
C          2.10280        0.04950        1.31020
C          3.22650        0.45810        1.44080
H          0.90710        2.08480       -0.03270
H         -0.65420        1.98950       -0.86310
H         -0.58700        1.97170        0.90880
H         -1.00380       -0.32460       -0.02650
H          0.51020       -0.24210       -0.92640
H          0.50820       -0.27870        3.12820
H          1.44360       -2.30250        0.22980
H          1.42730       -2.37910        1.97990
H         -1.13450       -2.43480        1.91090
H         -1.04250       -2.60860        0.15190
H         -0.34820       -3.85180        1.19150
H          4.21430        0.83370        1.54800
