18
gdb 12387	2.94561	2.19576	1.33839	3.1612	69.84	-0.234	0.0231	0.2572	928.2047	0.15609	-381.129688	-381.12209	-381.121146	-381.161588	28.894
C          0.02380        1.56100       -0.05730
C          0.09540        0.04000        0.01650
N          0.74580       -0.50260       -1.18030
C          0.80950       -1.95520       -1.12610
C          1.72860       -2.31450        0.02640
O          1.29830       -1.72480        1.26170
C          0.81790       -0.44600        1.26760
N          0.85980        0.26230        2.31510
H          1.02690        1.98320       -0.15520
H         -0.56990        1.86610       -0.92630
H         -0.43530        1.96440        0.84510
H         -0.93580       -0.35850        0.11690
H          0.23700       -0.19380       -2.00150
H         -0.17780       -2.43140       -0.97530
H          1.23270       -2.34440       -2.05780
H          1.75150       -3.39210        0.20760
H          2.74560       -1.96640       -0.19290
H          1.33320       -0.25150        3.06140
