16
gdb 20008	3.81416	1.42355	1.22846	3.0888	67.01	-0.2584	-0.042	0.2164	1011.744	0.1289	-383.70753	-383.699777	-383.698833	-383.740209	27.887
O         -0.19870        0.33410       -0.64770
C          0.19900        1.07770        0.21310
C          1.34350        2.02870        0.06810
O          2.27320        1.80200       -0.98760
C          1.44260        2.94480       -1.10840
C          0.45680        2.97870       -2.22040
C         -0.33050        4.24660       -2.46080
C          0.74900        3.84270       -3.42640
H         -0.28930        1.12370        1.21280
H          1.78060        2.36120        1.01120
H          1.95470        3.89180       -0.91640
H         -0.04300        2.03430       -2.39690
H         -1.36670        4.14540       -2.76200
H         -0.13820        5.09600       -1.81310
H          1.66950        4.41730       -3.42810
H          0.46250        3.45890       -4.39860
