13
gdb 5443	3.6654	1.96552	1.28334	4.4709	70.03	-0.1947	0.0181	0.2128	879.4269	0.096821	-357.647094	-357.639836	-357.638892	-357.678279	27.348
N          0.08300        1.39270        0.15320
C          0.00110        0.00740        0.03190
C         -1.07880       -0.85740       -0.00310
N         -0.62970       -2.17380       -0.03200
C          0.67120       -2.09940       -0.02390
N          1.11210       -0.79580        0.01670
C         -2.43690       -0.47090       -0.00330
C         -3.58040       -0.08800       -0.00650
H          0.58220        1.83700       -0.61070
H         -0.84810        1.79000        0.20990
H          1.35740       -2.93210       -0.05860
H          2.06290       -0.47890        0.10850
H         -4.59440        0.22550       -0.00440
