15
gdb 2060	4.77039	2.5324	1.74913	3.6663	63.69	-0.2353	-0.0468	0.1885	710.3459	0.127016	-308.561301	-308.555191	-308.554247	-308.591213	23.302
O          0.02180       -0.04610        0.12010
C         -0.01000        1.16210       -0.00200
C         -1.32140        1.93950       -0.06290
C         -1.20730        3.20320       -0.92470
C         -0.04930        4.09220       -0.45240
C          1.20960        3.30120       -0.23020
C          1.22680        1.97340       -0.05230
H         -2.10500        1.26350       -0.41410
H         -1.57800        2.21650        0.97040
H         -1.02600        2.91160       -1.96660
H         -2.14830        3.76220       -0.91180
H          0.14200        4.89490       -1.17410
H         -0.31700        4.60200        0.48660
H          2.14580        3.85600       -0.21460
H          2.15360        1.42490        0.08500
