20
gdb 19308	6.29562	0.89507	0.889	0.9062	76.21	-0.2417	0.0937	0.3354	1384.1161	0.176404	-348.963534	-348.955046	-348.954102	-348.997548	31.231
C         -0.13990        1.43280        0.14460
O          0.03850        0.04840        0.40720
C         -1.15340       -0.66880        0.39030
C         -1.69560       -1.17120       -0.92530
C         -1.05120       -2.12230        0.06590
C          1.18750        2.12760        0.26410
C          2.13910        2.13860       -0.90340
C          1.42770        3.40550       -0.50000
H         -0.55860        1.57930       -0.86460
H         -0.86440        1.85760        0.85990
H         -1.87550       -0.35790        1.14770
H         -2.76970       -1.21210       -1.07020
H         -1.12360       -0.93000       -1.81440
H         -0.06120       -2.49090       -0.17690
H         -1.67820       -2.82070        0.60850
H          1.63370        2.05920        1.25180
H          3.20090        2.05510       -0.70090
H          1.82090        1.64540       -1.81580
H          0.63430        3.76980       -1.14470
H          1.99880        4.19030       -0.01710
