17
gdb 10540	3.01542	1.3992	1.07414	3.7526	69.19	-0.2978	0.0042	0.3019	1132.8643	0.140692	-363.858638	-363.850001	-363.849056	-363.892261	30.605
C         -0.10190        1.56720        0.09510
C         -0.16110        0.04030        0.17920
C          0.94760       -0.54040        1.06730
C          0.88420       -2.05120        1.18320
C          1.18750       -2.75260        2.44760
O         -0.15780       -2.58230        2.01150
C          1.09260       -2.78610       -0.05700
N          1.27650       -3.34100       -1.05410
H          0.85190        1.90570       -0.32430
H         -0.90190        1.95680       -0.54100
H         -0.21040        2.02480        1.08470
H         -1.13200       -0.27630        0.57730
H         -0.08130       -0.38980       -0.82640
H          1.93320       -0.25850        0.67590
H          0.87200       -0.12930        2.08010
H          1.56460       -3.77280        2.42150
H          1.48460       -2.15540        3.30800
