16
gdb 900	6.6962	1.99188	1.56575	1.8384	68.21	-0.1961	0.0494	0.2455	805.9643	0.137493	-288.680991	-288.67366	-288.672716	-288.712459	26.255
C         -0.02630        1.45400        0.00850
N         -0.05130        0.00820       -0.00730
C          0.03360       -0.78030       -1.12680
C          0.08920       -2.09480       -0.72700
C          0.04100       -2.11630        0.69870
C          0.05840       -3.32450        1.58660
C         -0.04040       -0.80200        1.10380
H          0.99130        1.84660        0.12480
H         -0.44130        1.83680       -0.92690
H         -0.63910        1.82780        0.83310
H          0.04640       -0.33520       -2.10960
H          0.14030       -2.95280       -1.38100
H          0.96480       -3.92400        1.44010
H          0.02030       -3.03940        2.64240
H         -0.79480       -3.98590        1.39360
H         -0.09340       -0.37570        2.09410
