17
gdb 8185	2.82999	2.55652	1.76537	2.1784	62.92	-0.2287	0.0573	0.2861	784.8612	0.143843	-400.956396	-400.949518	-400.948574	-400.986907	27.946
O          0.01020        1.39250        0.10650
C         -0.00680       -0.01980        0.04710
C          0.42800       -0.64460        1.39980
N         -0.78940       -1.41490        1.81850
C         -1.86290       -0.39550        1.49390
C         -1.42560       -0.61030        0.01970
O         -2.13420       -0.21760       -1.11310
C         -1.14770       -2.06360        0.49430
H         -0.49260        1.70870       -0.65350
H          0.58290       -0.37950       -0.80830
H          1.28100       -1.32140        1.31630
H          0.65650        0.13270        2.13210
H         -2.85010       -0.80380        1.72760
H         -1.72730        0.59020        1.94250
H         -3.04880       -0.50490       -1.02780
H         -0.34630       -2.64140        0.02400
H         -2.04690       -2.67610        0.60310
