19
gdb 19359	3.9217	1.7032	1.47735	1.8051	74.54	-0.2013	0.082	0.2833	937.3907	0.165744	-327.844603	-327.837135	-327.836191	-327.876177	29.631
C         -0.12150        1.55930        0.13160
C          0.08420        0.04330        0.00780
C          0.75930       -0.37500       -1.26480
N          1.48730       -1.66370       -1.39380
C          2.17650       -0.37400       -1.68390
C          1.78990        0.08670       -3.11840
C          0.82200       -0.85570       -3.78270
C          0.32530        0.07100       -2.70360
H          0.83420        2.09070        0.08410
H         -0.75760        1.94430       -0.67120
H         -0.60180        1.80880        1.08250
H          0.68590       -0.31270        0.85480
H         -0.88650       -0.46610        0.08670
H          1.76700       -1.93910       -0.45220
H          3.07220       -0.09020       -1.14540
H          2.32590        0.85940       -3.65370
H          0.53210       -0.56300       -4.78750
H          0.88380       -1.92200       -3.60950
H         -0.42690        0.82790       -2.88350
