15
gdb 3164	4.00108	2.74406	1.96191	2.3565	57.47	-0.227	0.0623	0.2893	683.9359	0.124141	-345.60867	-345.601807	-345.600863	-345.639452	25.45
O          0.01630        1.28800       -0.32610
C          0.05380       -0.06830        0.04060
C         -0.00060       -0.42880        1.54740
O         -1.19580       -1.21860        1.34530
C         -1.30240       -0.75670       -0.00290
C         -2.57130       -0.22300       -0.57770
C         -1.97940       -1.53630       -1.07560
H          0.91950        1.60730       -0.41250
H          0.83580       -0.61200       -0.50490
H          0.81930       -1.02860        1.95650
H         -0.18510        0.44610        2.18280
H         -3.45540       -0.28070        0.04790
H         -2.50700        0.65410       -1.21200
H         -1.52570       -1.56600       -2.06140
H         -2.47620       -2.45270       -0.77520
