21
gdb 2291	7.35937	1.19042	1.09924	0.097	75.09	-0.2835	0.0895	0.373	1149.1136	0.195237	-274.984732	-274.976549	-274.975604	-275.017458	30.042
C          0.03140        1.57210        0.02390
C         -0.01630        0.04310        0.08800
C         -1.42830       -0.52620       -0.09650
C         -1.48980       -2.04530       -0.01500
C         -1.24270       -2.74960        1.35260
C         -2.36660       -3.75840        0.99380
C         -2.87510       -2.75060       -0.07170
H          1.05110        1.94780        0.15600
H         -0.33650        1.93970       -0.94070
H         -0.59220        2.02040        0.80550
H          0.64520       -0.37740       -0.68120
H          0.38720       -0.29550        1.05120
H         -2.09530       -0.09870        0.66640
H         -1.82870       -0.19810       -1.06660
H         -0.82630       -2.48080       -0.77310
H         -0.24460       -3.14530        1.55700
H         -1.53550       -2.10170        2.18640
H         -1.96410       -4.66550        0.53320
H         -3.05810       -4.05300        1.78690
H         -3.66230       -2.10360        0.33040
H         -3.21050       -3.14450       -1.03480
