20
gdb 9404	5.86379	0.78835	0.72296	2.8999	73.	-0.2529	-0.0261	0.2267	1585.7926	0.1732	-386.148934	-386.138739	-386.137795	-386.185145	34.625
C          0.11540        1.50080       -0.13990
C          0.00110       -0.01060        0.07250
C         -1.42250       -0.51740       -0.11450
O         -1.43180       -1.91770        0.09700
C         -2.70940       -2.51760        0.12680
C         -3.37440       -2.66900       -1.24190
C         -2.51530       -3.86570        0.81640
O         -3.28370       -4.78700        0.73360
H          1.14600        1.83890       -0.00050
H         -0.19340        1.78730       -1.15130
H         -0.51320        2.05310        0.56730
H          0.65390       -0.54360       -0.62810
H          0.33710       -0.28130        1.07990
H         -2.10380       -0.02500        0.60090
H         -1.78180       -0.27050       -1.12580
H         -3.37760       -1.93670        0.79250
H         -4.25930       -3.30170       -1.14060
H         -3.67750       -1.70260       -1.65170
H         -2.68360       -3.14720       -1.94240
H         -1.58810       -3.91260        1.42830
