17
gdb 16679	4.28891	1.73594	1.6223	3.2046	69.56	-0.2519	0.0336	0.2855	862.0266	0.144186	-363.856813	-363.850128	-363.849184	-363.887383	26.662
C         -0.17680        1.52370        0.01240
C          0.02030        0.01510        0.03040
C          1.16110       -0.61500       -0.81550
C          2.15560       -0.23550        0.30140
C          0.91030       -0.60470        1.18380
C          0.78100       -2.05790        0.80680
N          0.56040       -3.06570        1.52800
O          0.95730       -2.03940       -0.56610
H          0.74750        2.08510        0.16900
H         -0.60040        1.84130       -0.94650
H         -0.88060        1.82060        0.79660
H         -0.94160       -0.48680       -0.11370
H          1.31650       -0.45240       -1.88050
H          3.04960       -0.85480        0.39690
H          2.41440        0.82150        0.33470
H          0.80820       -0.35030        2.23520
H          0.52380       -3.91300        0.95760
