14
gdb 17164	4.39502	1.92565	1.58469	3.7731	62.79	-0.2364	-0.0357	0.2007	789.1503	0.107792	-378.600726	-378.594466	-378.593521	-378.631315	23.769
O          0.03230       -0.04350       -0.02300
C          0.10130        1.15500       -0.13760
C          1.37360        1.91770       -0.07710
N          2.74190        1.33020       -0.03290
C          2.98500        2.80600        0.05140
C          1.84190        3.11670       -0.96930
N          1.12750        4.12390       -0.12310
C          1.68670        3.15000        0.86490
H         -0.79900        1.79120       -0.27640
H          2.90670        0.87610        0.86830
H          3.98010        3.24960        0.11930
H          1.88390        3.14690       -2.05770
H          1.65460        5.00050       -0.09550
H          1.53410        3.22210        1.94380
