12
gdb 40	26.59789	3.79186	3.53779	1.3402	38.61	-0.2619	0.081	0.3429	382.8628	0.108241	-194.261089	-194.255495	-194.254551	-194.28893	18.431
C         -0.00380        1.52200        0.01030
C         -0.03590       -0.00780        0.00230
C         -1.45220       -0.56650        0.01280
O         -1.36800       -1.98390        0.00450
H          1.02480        1.89410        0.00240
H         -0.51290        1.93760       -0.86650
H         -0.49580        1.92800        0.90120
H          0.48140       -0.39530       -0.88320
H          0.49830       -0.40490        0.87330
H         -1.98730       -0.20400        0.90670
H         -2.00430       -0.19460       -0.86670
H         -2.26170       -2.33820        0.01030
