19
gdb 10499	2.82346	1.32624	1.01115	1.4876	81.18	-0.2313	0.0508	0.2821	1240.1154	0.163803	-327.881733	-327.872157	-327.871213	-327.918084	33.523
C          0.12140        1.45340        0.31590
C         -0.02770        0.01040       -0.17770
C         -1.45330       -0.51990       -0.06480
C         -1.65130       -1.97000        0.23600
N         -1.93570       -0.96690        1.27040
C         -2.43200        0.17040       -0.87310
C         -3.21810        0.75080       -1.57760
C         -4.18550        1.44450       -2.41560
H          1.15430        1.79760        0.20840
H         -0.52470        2.12580       -0.25560
H         -0.15610        1.54290        1.37150
H          0.29090       -0.05670       -1.22480
H          0.63370       -0.65320        0.39420
H         -2.52620       -2.48020       -0.15500
H         -0.76190       -2.58920        0.32740
H         -1.15800       -0.92280        1.92660
H         -5.17800        0.98770       -2.33340
H         -4.28150        2.49770       -2.12880
H         -3.89390        1.41360       -3.47140
