14
gdb 4367	3.76073	2.01589	1.31479	2.0057	70.14	-0.1997	-0.0184	0.1813	874.2788	0.110356	-374.965344	-374.95852	-374.957576	-374.995855	26.987
N          0.03190        1.35800        0.17230
C          0.00360       -0.01560        0.05540
C         -1.20600       -0.73340        0.05630
N         -1.21460       -2.06040       -0.00250
C         -0.04660       -2.69000       -0.06410
C          1.16370       -1.97340       -0.06910
N          2.38190       -2.60830       -0.18910
N          1.18360       -0.63900       -0.00830
H          0.90520        1.78110       -0.10370
H         -0.78960        1.85720       -0.12970
H         -2.16300       -0.22150        0.11140
H         -0.05720       -3.77540       -0.11680
H          2.42630       -3.56770        0.11540
H          3.17310       -2.04470        0.08330
