13
gdb 9977	3.11218	1.42813	1.02245	4.9938	65.37	-0.2703	-0.0521	0.2183	1065.1787	0.092473	-361.444055	-361.435537	-361.434592	-361.478065	28.84
O         -0.05120       -0.04560        0.07820
C         -0.00520        1.14950        0.02690
C          1.30610        1.95650       -0.01230
C          1.36100        2.84810       -1.28680
C          1.39170        2.06770       -2.52160
N          1.41670        1.44510       -3.49420
C          1.37050        2.78610        1.18360
C          1.36940        3.47660        2.16730
H         -0.91940        1.78340        0.01620
H          2.12770        1.23380       -0.03150
H          0.49410        3.51780       -1.30470
H          2.25050        3.48310       -1.23940
H          1.39110        4.07610        3.04440
