16
gdb 4565	5.52214	1.45721	1.16126	1.2208	75.38	-0.2109	0.0022	0.2131	1006.0973	0.131721	-346.680854	-346.673486	-346.672541	-346.712888	27.93
C         -0.05010        1.52720        0.02730
C         -0.00820        0.01850        0.00520
C          0.02030       -0.68440       -1.20530
C          0.07800       -2.07080       -1.24310
C          0.10760       -2.79650       -0.05070
O          0.16200       -4.15760       -0.13860
C          0.07720       -2.11780        1.16610
C          0.01920       -0.72590        1.18460
H          0.92060        1.96270       -0.24040
H         -0.78360        1.91960       -0.68510
H         -0.31390        1.90340        1.01980
H         -0.00490       -0.13330       -2.14130
H          0.09750       -2.60870       -2.18410
H          0.17600       -4.52740        0.75010
H          0.09520       -2.67500        2.09950
H         -0.00630       -0.21260        2.14150
