20
gdb 8593	4.10937	1.82864	1.67487	0.3616	80.54	-0.2281	0.0794	0.3075	882.547	0.178424	-311.750292	-311.743376	-311.742432	-311.780851	28.7
C         -0.19100        1.63340       -0.10540
C         -0.00050        0.12310       -0.00390
C          0.99310       -0.58690       -1.03730
C          1.91810       -0.84800        0.16900
C          2.62240       -1.75460        1.22830
C          2.10980       -0.44760        1.99110
C          2.68510        0.35640        0.81330
C          0.78270       -0.62750        1.16900
H          0.74370        2.18600       -0.22200
H         -0.81510        1.87270       -0.97450
H         -0.70120        2.02000        0.78330
H         -0.99510       -0.32970       -0.05650
H          0.54660       -1.48760       -1.46780
H          1.40030        0.02940       -1.84510
H          2.11690       -2.69200        1.47550
H          3.70920       -1.88260        1.17910
H          2.24420       -0.24660        3.05850
H          3.77250        0.34540        0.69120
H          2.29010        1.35860        0.66370
H          0.22050       -1.52330        1.45140
