21
gdb 5880	4.10756	1.01081	0.99776	3.1018	79.95	-0.2407	0.0331	0.2737	1331.5201	0.184683	-366.272608	-366.262339	-366.261395	-366.307468	36.931
C          0.04700        1.39080       -0.04560
N          0.06160       -0.05530       -0.09130
C         -1.05050       -0.64390       -0.02500
O         -1.11230       -1.98610       -0.06160
C         -2.40480       -2.64890        0.01530
C         -3.27910       -2.25540       -1.18270
C         -2.03780       -4.13250       -0.05720
C         -3.08910       -2.33220        1.35160
H          0.64740        1.74080        0.80250
H          0.51440        1.79490       -0.95130
H         -0.96170        1.82910        0.04450
H         -2.01420       -0.12310        0.06420
H         -2.74580       -2.44350       -2.11870
H         -4.19940       -2.84720       -1.18490
H         -3.56540       -1.20030       -1.15530
H         -1.38130       -4.40220        0.77420
H         -2.93740       -4.75280       -0.00890
H         -1.51290       -4.34850       -0.99130
H         -3.37250       -1.27890        1.43050
H         -4.00100       -2.92810        1.45560
H         -2.42280       -2.57310        2.18470
