16
gdb 17837	5.15025	1.47621	1.24892	3.0395	66.07	-0.2311	0.0364	0.2674	965.4998	0.131419	-379.913049	-379.905693	-379.904749	-379.94501	27.817
N         -0.09630        1.30960        0.03660
C         -0.05370       -0.06610        0.01290
O          0.84310       -0.71810        0.50550
N         -1.15420       -0.61920       -0.68200
C         -2.45880       -0.69060        0.01250
C         -3.48830       -1.13560       -1.03240
C         -2.62260       -2.42660       -1.27330
C         -1.63360       -1.91930       -0.21570
H          0.77080        1.75830        0.28550
H         -0.65900        1.77420       -0.65760
H         -2.61130       -0.11540        0.91760
H         -4.46230       -1.36480       -0.59480
H         -3.61980       -0.46110       -1.88180
H         -3.14330       -3.33570       -0.96600
H         -2.20690       -2.56290       -2.27390
H         -1.01550       -2.47870        0.47330
