17
gdb 19108	4.50509	2.24116	2.17965	1.5283	69.66	-0.2156	0.0852	0.3008	718.8837	0.143978	-326.632075	-326.626151	-326.625207	-326.661684	24.712
C         -0.06180        1.61750        0.02050
C          0.02270        0.10740       -0.05140
C          0.71350       -0.62370       -1.22470
C          2.20250       -0.20010       -1.16490
C          2.63540       -1.43570       -0.39120
C          2.35950       -0.16880        0.35940
N          1.01360       -0.58660        0.86680
C          1.12980       -1.71350       -0.18130
H          0.90480        2.08090       -0.19870
H         -0.79150        1.99830       -0.70200
H         -0.37580        1.93810        1.01930
H         -0.95560       -0.34630        0.14960
H          0.25130       -0.82090       -2.19200
H          2.77450        0.42070       -1.84020
H          3.51370       -2.06300       -0.45110
H          3.02130        0.49370        0.90090
H          0.62300       -2.65740        0.00880
