15
gdb 8245	6.00339	1.1337	1.01136	2.4602	68.76	-0.2625	0.0237	0.2862	1121.2901	0.117745	-362.629031	-362.621286	-362.620342	-362.661617	28.357
N          0.10500        1.22280        0.68430
C          0.02960        0.11160        0.11130
C         -1.08680       -0.87040       -0.17600
C          0.03640       -1.70630       -0.82610
C         -0.05250       -1.94990       -2.33000
C          1.15170       -2.55650       -2.88250
C          2.14880       -3.06500       -3.31840
O          1.00550       -0.65870       -0.49160
H          1.06280        1.57800        0.68050
H         -1.56080       -1.30120        0.70670
H         -1.85470       -0.50020       -0.85870
H          0.29590       -2.62710       -0.29730
H         -0.91830       -2.59980       -2.51670
H         -0.26080       -0.99570       -2.83010
H          3.03140       -3.50650       -3.71050
