13
gdb 19607	4.82057	1.89968	1.63427	3.7444	57.19	-0.248	-0.0026	0.2454	759.2246	0.095636	-398.542874	-398.536642	-398.535698	-398.573121	23.94
O          0.06740        1.30180        0.14800
C          0.05110       -0.08480       -0.07320
C         -1.40700       -0.53040       -0.20410
C         -1.37990       -0.40630       -1.66330
C          0.19110       -0.50630       -1.57960
C         -0.08640       -1.99580       -1.47350
O          0.46580       -3.01230       -1.74750
N         -1.47040       -1.79170       -1.03400
H          0.98410        1.59190        0.19240
H          0.69460       -0.62020        0.63870
H         -2.21380       -0.38130        0.50150
H         -2.07440       -0.08450       -2.42370
H          0.95230       -0.07820       -2.22590
