18
gdb 301	4.93979	2.82688	2.43235	0.0963	64.09	-0.2558	0.0887	0.3445	649.5784	0.16489	-235.698987	-235.691505	-235.69056	-235.729399	27.904
C         -0.06410        1.52670       -0.10060
C          0.04490        0.02230        0.02350
C          1.36300       -0.69270       -0.18160
C          0.71320       -0.68650        1.18570
C          1.36890        0.10890        2.29930
C          0.07440       -1.97880        1.66170
H          0.83900        2.03600        0.24680
H         -0.21730        1.81710       -1.14620
H         -0.90890        1.91820        0.47790
H         -0.82330       -0.50180       -0.37100
H          1.37580       -1.61740       -0.74990
H          2.24690       -0.07720       -0.32230
H          1.85910        1.01470        1.93410
H          0.63630        0.40860        3.05870
H          2.13310       -0.49530        2.80270
H          0.81540       -2.63650        2.13240
H         -0.71080       -1.78360        2.40230
H         -0.37980       -2.53050        0.83250
