14
gdb 20777	3.27483	1.89509	1.29156	2.6353	59.04	-0.291	-0.0405	0.2505	904.5478	0.106698	-415.821851	-415.814233	-415.813289	-415.854227	26.782
C          0.11060        1.50120        0.02510
C          0.06430        0.01060        0.06580
N          0.06880       -0.73400       -1.00610
O          0.02040       -2.03260       -0.56790
N         -0.00560       -2.09140        0.79520
C          0.01430       -0.85400        1.20830
C          0.03540       -0.48650        2.66130
O          1.17600        0.29620        2.98890
H          0.87770        1.87130        0.71000
H          0.31970        1.84830       -0.98780
H         -0.84610        1.92780        0.34640
H         -0.82910        0.13990        2.90430
H         -0.03350       -1.40060        3.26400
H          1.95600       -0.25400        2.85870
