18
gdb 6269	4.6144	1.04338	0.94587	3.6937	72.06	-0.2352	-0.0672	0.168	1261.3938	0.1519	-381.141691	-381.132291	-381.131346	-381.175997	33.283
C         -0.00920        1.54470       -0.00550
C          0.02370        0.00990        0.02590
C          0.69020       -0.53370        1.28960
N         -1.31480       -0.56470       -0.09600
C         -1.98860       -0.61460       -1.28180
N         -1.47640       -0.27080       -2.40350
C         -3.39750       -1.15740       -1.15890
O         -4.12660       -1.29460       -2.10460
H          1.00750        1.94950        0.02590
H         -0.48940        1.89290       -0.92240
H         -0.55940        1.94160        0.85550
H          0.57230       -0.33660       -0.85600
H          0.14330       -0.22240        2.18870
H          0.73310       -1.62650        1.27520
H          1.70980       -0.14900        1.37800
H         -1.85360       -0.66070        0.75100
H         -2.16430       -0.45430       -3.13610
H         -3.72750       -1.42760       -0.12900
