20
gdb 12860	2.76795	2.22998	1.75119	1.2559	73.34	-0.249	0.0794	0.3284	864.3545	0.178726	-349.013499	-349.006052	-349.005108	-349.044903	29.913
O         -0.01930        1.39590       -0.32660
C          0.01920        0.02240        0.00780
C          0.40220       -0.94080       -1.15720
C         -0.96620       -1.66370       -1.00560
C         -1.39720       -0.63960        0.08710
C         -1.54260       -1.19160        1.51020
C         -0.08950       -1.44830        1.96300
C          0.68970       -0.26030        1.36620
H          0.88860        1.71420       -0.38130
H          0.50660       -0.40060       -2.10090
H          1.29360       -1.55560       -0.99950
H         -1.58730       -1.66650       -1.90360
H         -0.89380       -2.69250       -0.64160
H         -2.21350        0.01720       -0.21700
H         -2.00230       -0.43480        2.15730
H         -2.17080       -2.08730        1.55860
H          0.01540       -1.52180        3.04910
H          0.27740       -2.39260        1.54300
H          1.76650       -0.44610        1.28490
H          0.54690        0.62890        1.99140
