17
gdb 3324	6.01715	1.82011	1.64299	1.1774	63.61	-0.2509	0.0791	0.33	796.4095	0.149039	-309.679242	-309.67232	-309.671376	-309.710085	26.134
O         -0.06140        1.42620       -0.18860
C          0.05040        0.03500        0.08500
C         -1.33870       -0.56520       -0.02050
C         -2.03260       -0.64450       -1.42330
C         -2.22990       -2.15290       -1.21960
C         -0.90030       -2.82540       -1.04330
C         -1.49860       -2.08560        0.12520
H          0.82110        1.80750       -0.17590
H          0.73340       -0.45330       -0.62720
H          0.45220       -0.14350        1.09670
H         -1.99040       -0.03830        0.68280
H         -2.96320       -0.07560       -1.45930
H         -1.41810       -0.35810       -2.28340
H         -3.12270       -2.71060       -1.47470
H         -0.93140       -3.90700       -0.95710
H         -0.02110       -2.45100       -1.56240
H         -1.73050       -2.59800        1.05170
