16
gdb 10416	2.67543	1.97842	1.4156	2.0627	66.49	-0.2543	0.0244	0.2787	921.0852	0.127913	-383.66332	-383.654906	-383.653961	-383.696443	30.019
C         -0.01390        1.42590        0.05700
O         -0.10540        0.01710       -0.06410
C          0.61880       -0.53540       -1.13920
C          2.16170       -0.64980       -0.91900
O          2.08950       -2.08380       -0.85520
C          0.65990       -2.07930       -1.01240
C          0.20500       -0.01070       -2.43670
C         -0.13050        0.41810       -3.50860
H          1.02410        1.75550        0.20990
H         -0.41800        1.93540       -0.82660
H         -0.60290        1.69990        0.93440
H          2.79300       -0.30150       -1.74300
H          2.49470       -0.20570        0.02710
H          0.13330       -2.43120       -0.11850
H          0.33480       -2.63950       -1.89450
H         -0.42910        0.79210       -4.45710
