18
gdb 4067	7.43925	0.97485	0.89306	0.8978	73.79	-0.2197	0.0058	0.2255	1289.8062	0.152306	-381.050515	-381.04192	-381.040976	-381.083748	31.231
C         -0.02200        1.49280       -0.10960
C          0.08680       -0.02940       -0.06630
N          0.74470       -0.48570        1.14390
C          2.20980       -0.24940        1.27120
C          2.33940       -1.68210        1.73190
C          0.90870       -1.95160        1.32450
N          3.29200       -2.30750        2.27520
O          2.92850       -3.64080        2.54300
H          0.96830        1.96080       -0.10900
H         -0.54100        1.81690       -1.01670
H         -0.57100        1.86330        0.76080
H         -0.91630       -0.47260       -0.08370
H          0.60860       -0.39160       -0.97590
H          2.71700       -0.06660        0.30890
H          2.49400        0.53890        1.97560
H          0.25000       -2.40470        2.07280
H          0.84020       -2.53600        0.39210
H          3.72250       -3.98680        2.96420
