19
gdb 17612	3.59708	1.34918	1.27312	2.8028	73.07	-0.2434	0.0056	0.249	1080.7125	0.164106	-365.069955	-365.060878	-365.059934	-365.10439	32.234
C         -0.01010        1.08140       -0.46450
C          0.07510       -0.21690        0.36360
C          0.71960        0.02860        1.73190
C         -1.33700       -0.77390        0.52730
O         -2.10230       -0.40590        1.39140
N         -1.72800       -1.65780       -0.48540
C         -1.23960       -3.02240       -0.60900
C         -2.66340       -2.72880       -0.23890
H          0.98880        1.50320       -0.61290
H         -0.45550        0.89710       -1.44610
H         -0.62270        1.82410        0.05600
H          0.66850       -0.94330       -0.20350
H          0.84350       -0.90410        2.29120
H          1.70600        0.48730        1.61380
H          0.09160        0.69350        2.33010
H         -0.98890       -3.35230       -1.61350
H         -0.58800       -3.40130        0.17510
H         -2.96650       -2.88340        0.79290
H         -3.44800       -2.85480       -0.97920
