17
gdb 1519	7.88922	1.24756	1.12804	3.5615	63.03	-0.2372	0.0669	0.3042	1078.34	0.147875	-343.078368	-343.069385	-343.068441	-343.112828	30.187
C         -0.26660        1.46240        0.15590
C          0.30820        0.07560       -0.12460
N          0.91040       -0.50770        1.06530
C          0.83870       -1.86910        1.29440
O          0.14090       -2.62360        0.63780
N          1.63610       -2.29870        2.34050
C          1.49190       -3.65350        2.84190
H          0.51100        2.15940        0.48970
H         -0.71540        1.87970       -0.75070
H         -1.03390        1.41540        0.93410
H         -0.47250       -0.61920       -0.43940
H          1.03610        0.13060       -0.94810
H          1.70740       -0.02050        1.44600
H          1.92090       -1.60180        3.01100
H          2.44090       -3.99700        3.26370
H          0.71100       -3.74570        3.60930
H          1.21760       -4.29260        2.00260
