16
gdb 14506	4.00717	1.8421	1.47115	2.9103	65.19	-0.2349	-0.0279	0.207	858.6237	0.128987	-383.673563	-383.666217	-383.665273	-383.705173	27.649
C         -0.13980        1.62360        0.06860
C         -0.01700        0.10770        0.09080
C         -1.37820       -0.55040       -0.03380
O         -2.40460        0.07840       -0.13560
C          1.12380       -0.64800       -0.69230
C          2.18790       -0.12830        0.30160
C          0.95530       -0.63560        1.08480
O          0.93070       -1.81800        0.19380
H          0.81820        2.13630        0.15650
H         -0.62030        1.94450       -0.85970
H         -0.78680        1.95670        0.88470
H         -1.37290       -1.65450       -0.02560
H          1.20040       -0.83650       -1.76380
H          3.06300       -0.77270        0.38910
H          2.44040        0.93090        0.31820
H          0.82870       -0.80970        2.15400
