18
gdb 7732	3.24665	1.76247	1.19533	4.0592	76.57	-0.2305	-0.0411	0.1894	1014.615	0.154718	-347.858383	-347.850723	-347.849779	-347.890267	29.096
C         -0.02590        1.51890        0.03560
C         -0.02320        0.01880       -0.01770
C         -0.07990       -0.65680       -1.17890
C         -0.01950       -2.12770       -1.27290
O         -0.09990       -2.70440       -2.34070
C          0.19450       -2.87960        0.03660
C         -0.43540       -2.14960        1.22710
C          0.06160       -0.70170        1.30750
H          0.85690        1.88820        0.57340
H         -0.03440        1.96430       -0.96170
H         -0.89910        1.88640        0.58970
H         -0.15350       -0.13510       -2.12920
H         -0.19020       -3.89530       -0.08410
H          1.28100       -2.96540        0.18580
H         -1.52620       -2.14480        1.11100
H         -0.21910       -2.67750        2.16160
H          1.10840       -0.67880        1.64910
H         -0.50280       -0.14240        2.06370
