18
gdb 5302	4.30456	1.40074	1.37292	0.4422	74.22	-0.2121	0.0243	0.2365	1006.7038	0.154104	-347.844925	-347.836957	-347.836013	-347.877504	29.701
C         -0.05340        1.54990        0.03030
C         -0.01820        0.00950        0.03950
C          0.72150       -0.52080        1.28280
C         -1.39210       -0.57110       -0.07050
C         -2.00870       -1.35920       -0.99320
C         -3.34700       -1.57630       -0.52380
C         -3.44380       -0.90320        0.64970
O         -2.26590       -0.28600        0.94190
H          0.96110        1.95860        0.07650
H         -0.53550        1.92820       -0.87590
H         -0.61190        1.92760        0.89220
H          0.52300       -0.32760       -0.85270
H          0.19560       -0.22990        2.19720
H          0.78960       -1.61250        1.26570
H          1.73660       -0.11350        1.32980
H         -1.56420       -1.74070       -1.89950
H         -4.12390       -2.15440       -0.99920
H         -4.23460       -0.76460        1.36830
