19
gdb 16175	4.27331	1.55981	1.35991	1.2322	70.72	-0.2439	0.0857	0.3296	975.7258	0.167091	-365.048783	-365.041141	-365.040197	-365.080735	29.087
C          0.25320        1.48130        0.24070
C         -0.17840        0.05630       -0.12980
C          0.54150       -0.47810       -1.34410
C          0.26660        0.11370       -2.72250
O          0.83930       -0.79680       -3.65740
C          0.74730       -2.10760       -3.10210
C          0.86350       -1.90710       -1.60380
N          1.91220       -0.98130       -1.15130
H          1.33240        1.51820        0.41760
H          0.01670        2.19620       -0.55480
H         -0.25240        1.82030        1.14970
H          0.02190       -0.61460        0.71180
H         -1.26100        0.02650       -0.31060
H         -0.82140        0.21550       -2.87250
H          0.73060        1.09050       -2.89610
H         -0.21610       -2.58520       -3.34570
H          1.55130       -2.70600       -3.54400
H          0.59990       -2.71430       -0.92760
H          2.49770       -0.71800       -1.94340
