16
gdb 14629	15.06683	0.57613	0.56748	1.3036	63.98	-0.2611	-0.0352	0.2259	1814.1439	0.125943	-420.875698	-420.866202	-420.865258	-420.91223	30.167
O         -0.65090        0.87790        0.81520
C          0.02400        1.06760       -0.16220
C          1.30600        1.87040       -0.18500
C          1.26140        2.99160       -1.22210
O          2.55950        3.53480       -1.33580
C          2.64380        4.60660       -2.24050
C          4.08120        5.09960       -2.25760
O          4.46760        5.99400       -2.96050
H         -0.26640        0.63810       -1.15010
H          1.50720        2.26210        0.81440
H          2.12300        1.19100       -0.46530
H          0.92330        2.60120       -2.19740
H          0.54360        3.77010       -0.91730
H          2.35720        4.31020       -3.26360
H          1.98620        5.44410       -1.95190
H          4.74740        4.55420       -1.55370
