11
gdb 1029	8.35462	2.06683	1.65693	5.8712	57.43	-0.2477	-0.0592	0.1885	681.5642	0.080405	-339.479764	-339.47419	-339.473246	-339.509221	19.949
O         -0.13540        0.00980       -0.00070
C          0.01880        1.20580        0.00710
C          1.30630        1.90160       -0.00180
N          2.52430        1.38160       -0.01910
C          3.37750        2.44010       -0.02050
C          2.67900        3.63220       -0.00400
N          1.36410        3.27530        0.00820
H         -0.85300        1.90440        0.02190
H          4.44860        2.30500       -0.03340
H          2.99540        4.66230        0.00020
H          0.57660        3.90360        0.02190
