18
gdb 17922	3.11501	2.179	2.09948	0.9586	65.81	-0.2349	0.0658	0.3007	773.1923	0.15682	-384.947041	-384.94043	-384.939486	-384.977366	26.834
O         -0.05450        1.41170        0.02980
C          0.00720        0.00250       -0.03830
C         -1.36910       -0.60290       -0.36900
C         -1.65420       -0.00360       -1.76770
C         -0.24000       -0.00360       -2.43510
C          0.64060       -0.58940       -1.31680
O          0.35500       -1.98490       -1.17460
C         -0.94990       -2.06730       -0.55670
H          0.83880        1.74500        0.15830
H          0.45210       -0.43030        0.86800
H         -2.15400       -0.45120        0.37270
H         -2.38220       -0.60460       -2.31950
H         -2.04930        1.00980       -1.68020
H         -0.18440       -0.63230       -3.32640
H          0.07740        1.00710       -2.70380
H          1.71870       -0.47400       -1.44690
H         -0.86450       -2.61050        0.39370
H         -1.63500       -2.62180       -1.20990
