18
gdb 16461	3.17062	2.68272	1.77445	2.0098	70.66	-0.2274	0.08	0.3074	788.4781	0.155087	-347.755727	-347.749216	-347.748272	-347.785873	26.792
C          0.00470        1.51460       -0.01090
C          0.04680        0.00710       -0.04290
C          0.46460       -0.71750       -1.32200
C          0.35560       -2.20620       -0.87470
C         -0.10160       -2.01830        0.56600
C          0.60870       -0.78390        1.18920
O         -0.58210       -0.45930        1.98780
C         -1.08790       -0.82000        0.65550
H          0.99000        1.94230       -0.22840
H         -0.69470        1.90640       -0.75820
H         -0.31330        1.85810        0.97700
H         -0.20080       -0.47860       -2.15850
H          1.47910       -0.44290       -1.63000
H         -0.36990       -2.77180       -1.46740
H          1.31110       -2.73600       -0.93860
H         -0.28500       -2.87960        1.20710
H          1.58330       -0.71100        1.67580
H         -2.16760       -0.79080        0.49580
