18
gdb 8280	7.0464	0.90909	0.8902	4.1556	70.28	-0.2754	0.011	0.2864	1316.3349	0.152637	-384.957823	-384.949396	-384.948451	-384.99179	29.987
C         -0.29080        1.41940       -0.03250
C          0.01560       -0.07520        0.00500
C          1.28950       -0.49930       -0.79140
C          2.06530       -0.53100        0.54240
C          0.72530       -0.56230        1.30720
O          2.91470       -1.65890        0.73670
C          4.19660       -1.45370        1.08980
O          4.97050       -2.34470        1.27150
H          0.58910        2.02140        0.22280
H         -0.62270        1.72780       -1.02970
H         -1.08330        1.67630        0.67860
H         -0.88360       -0.63930       -0.25370
H          1.20280       -1.50840       -1.20130
H          1.65330        0.17480       -1.57120
H          2.63440        0.38770        0.72300
H          0.63910        0.06140        2.20080
H          0.46000       -1.59140        1.56130
H          4.44610       -0.37850        1.19070
