16
gdb 18211	4.2601	1.67436	1.31218	3.4233	72.74	-0.2463	-0.0546	0.1916	922.9412	0.131558	-346.618288	-346.611543	-346.610599	-346.649252	25.961
O         -0.07040       -0.02760       -0.01370
C          0.00960        1.17920        0.05470
C          1.26840        1.92800        0.04000
C          1.35210        3.26980        0.07900
C          2.77770        3.75400       -0.02740
C          3.59880        2.46240       -0.02900
C          3.50230        1.56640        1.17630
C          2.61840        1.29550       -0.02370
H         -0.90250        1.81410        0.12200
H          0.50400        3.93900        0.18230
H          2.91940        4.32990       -0.95250
H          3.04590        4.43050        0.79470
H          4.50480        2.42470       -0.62160
H          4.32760        0.88370        1.34770
H          3.03270        1.94300        2.08000
H          2.75780        0.38800       -0.59710
