14
gdb 7870	3.74912	1.72976	1.20113	5.7453	67.19	-0.2295	-0.0872	0.1423	950.341	0.106266	-382.5917	-382.584341	-382.583396	-382.623543	26.654
C         -0.02050        1.47630        0.04340
C         -0.00030       -0.01310       -0.01810
C         -0.03370       -0.77180       -1.13250
C          0.00080       -2.20480       -0.81730
O         -0.01510       -3.15950       -1.55570
C          0.06440       -2.28050        0.73870
O          0.10510       -3.28730        1.38840
C          0.06300       -0.83930        1.24840
H          0.87260        1.85200        0.55860
H         -0.06650        1.92590       -0.95090
H         -0.88140        1.82530        0.62760
H         -0.08030       -0.39490       -2.14700
H          0.96270       -0.63290        1.84160
H         -0.79220       -0.65940        1.91200
