11
gdb 980	3.71229	3.65256	1.8566	0.9287	48.31	-0.2056	0.009	0.2146	621.2675	0.079623	-376.594067	-376.587743	-376.586799	-376.624388	22.479
N          0.30340        1.41040       -0.03360
C          0.05430        0.04360       -0.00700
C         -1.04590       -0.75600        0.00710
O         -2.33700       -0.36470        0.07520
N         -0.68340       -2.08230       -0.07470
C          0.61400       -2.04360       -0.12310
O          1.14260       -0.81250       -0.10080
H          0.40900        1.82470        0.88700
H         -0.41980        1.91050       -0.53530
H         -2.87120       -1.16680        0.03640
H          1.29950       -2.87520       -0.16430
