16
gdb 6115	2.96258	1.82583	1.51268	2.7464	60.84	-0.2491	-0.0305	0.2186	884.9555	0.127148	-420.878314	-420.86973	-420.868786	-420.91089	31.691
C          0.36900        1.44960       -0.02740
C         -0.07860       -0.00490       -0.01040
O         -1.48100       -0.14050       -0.05670
C          0.73910       -0.93220       -0.98900
C          1.58500       -1.30080        0.22970
O          2.74300       -1.56090        0.41200
C          0.50960       -0.81930        1.19780
O          0.91390       -0.18790        2.37310
H          1.45860        1.53590        0.02830
H          0.04560        1.94070       -0.95280
H         -0.05790        1.98160        0.82590
H         -1.81400        0.39140       -0.78760
H          0.12290       -1.76660       -1.33600
H          1.26700       -0.48040       -1.83110
H         -0.21120       -1.62150        1.41360
H          1.87860       -0.22520        2.39560
