17
gdb 17343	3.52941	2.13526	1.79186	2.2245	66.5	-0.2218	0.0772	0.2991	793.522	0.143572	-363.814756	-363.808123	-363.807179	-363.845005	27.233
O         -0.04630        1.38720        0.08910
C         -0.00900       -0.00590        0.03850
C         -0.38070       -0.72160       -1.23550
C         -1.29060       -0.79400       -0.02200
C         -1.15750       -1.95200        0.96700
N          0.14620       -1.83510        1.67160
C          1.33970       -2.09280        0.85510
C          0.87180       -0.69940        1.06570
H          0.68980        1.72490       -0.43240
H         -0.73150       -0.08400       -2.04100
H          0.16900       -1.59500       -1.56700
H         -2.24020       -0.27440       -0.08640
H         -1.94720       -1.87830        1.72150
H         -1.24550       -2.93900        0.49840
H          2.19280       -2.47130        1.41360
H          1.22410       -2.54450       -0.12620
H          1.39670       -0.02800        1.74010
