17
gdb 8394	4.01901	1.64543	1.42946	2.2779	68.52	-0.2231	-0.0256	0.1975	917.4407	0.14199	-363.797481	-363.789874	-363.78893	-363.830458	27.827
C         -0.02640        1.48750       -0.01160
C          0.02260       -0.02780        0.03260
O          0.06780       -0.64940        1.07090
C          0.01300       -0.74800       -1.29200
C          1.01900       -0.67430       -2.47410
N          0.00290       -1.71110       -2.98250
C          0.05570       -2.26720       -1.54200
C         -1.05170       -0.74080       -2.42400
H          0.82780        1.87970       -0.57540
H         -0.93010        1.82400       -0.53270
H         -0.01450        1.88940        1.00210
H          1.04900        0.23850       -3.07510
H          2.01970       -1.08300       -2.31190
H          0.98210       -2.79830       -1.31300
H         -0.82260       -2.85630       -1.26920
H         -2.01510       -1.21240       -2.21410
H         -1.16920        0.16730       -3.02140
