14
gdb 2883	6.56552	1.91412	1.60177	4.302	62.75	-0.2647	0.0006	0.2654	755.4208	0.11541	-287.469473	-287.463234	-287.46229	-287.499782	22.858
N         -0.14480       -1.15870       -0.18380
C         -0.08930       -0.00610       -0.11640
C         -0.01740        1.45300       -0.02910
C         -0.64270        2.02430        1.28230
C          0.24530        3.23680        1.65480
C          1.53010        2.96590        0.91080
C          1.40300        1.99990        0.00610
H         -0.54190        1.84850       -0.91110
H         -1.69670        2.27810        1.15500
H         -0.57730        1.26340        2.06380
H         -0.19820        4.18590        1.32370
H          0.38920        3.32580        2.73680
H          2.43630        3.53600        1.08190
H          2.16830        1.64430       -0.67230
