15
gdb 12581	3.11297	2.11044	1.27884	6.4572	66.02	-0.225	-0.0102	0.2148	908.1798	0.119189	-399.863199	-399.855317	-399.854373	-399.895534	28.54
C          0.00820        1.55410        0.03040
C         -0.03470        0.05940        0.02370
C         -1.09120       -0.77850        0.03070
N         -2.42860       -0.50350        0.10280
C         -0.59040       -2.20010        0.02580
O          0.82230       -2.09800        0.00070
C          1.18290       -0.75720        0.00180
O          2.33510       -0.41970       -0.02250
H          1.01920        1.88520       -0.21980
H         -0.68480        1.99060       -0.69990
H         -0.24420        1.97240        1.01250
H         -2.71410        0.44190       -0.10190
H         -3.07010       -1.20380       -0.23570
H         -0.90820       -2.74920        0.92170
H         -0.93450       -2.75880       -0.85570
