13
gdb 11188	4.0957	1.58652	1.3889	4.3166	58.3	-0.2687	0.006	0.2747	873.0252	0.098396	-394.837229	-394.830394	-394.82945	-394.868548	24.916
O          0.04440       -0.00250       -0.10860
C          0.00160        1.20020       -0.03930
N         -1.09630        2.02020       -0.25160
C         -0.83060        3.38450        0.16100
C          0.71910        3.43800        0.03090
N          1.06800        2.05060        0.28710
C          1.15220        3.90940       -1.30030
N          1.52000        4.28280       -2.33000
H         -2.00980        1.60880       -0.14880
H         -1.31920        4.11910       -0.48190
H         -1.11170        3.57850        1.20500
H          1.15000        4.10910        0.77960
H          1.99480        1.71440        0.07310
