18
gdb 19841	3.3369	2.45643	1.79362	1.397	70.23	-0.2365	0.0824	0.3189	787.7382	0.156595	-347.77624	-347.76996	-347.769015	-347.806202	26.277
C          0.07110        1.59280       -0.09150
C          1.31000        0.73840       -0.03140
C          2.10960        0.72790        1.25810
O          1.26580        0.84540        2.40210
C          0.38380       -0.23170        2.54690
C         -1.08370        0.08760        2.50450
C         -0.42300       -0.60080        1.32800
C         -0.05830        0.09120        0.03930
H         -0.14620        2.20950        0.77280
H         -0.20610        2.03400       -1.04240
H          1.89860        0.61030       -0.93490
H          2.71490       -0.19100        1.32130
H          2.79080        1.58350        1.30970
H          0.74420       -1.01210        3.21620
H         -1.75370       -0.49800        3.12430
H         -1.35200        1.13280        2.40310
H         -0.65340       -1.65480        1.20720
H         -0.40130       -0.42480       -0.85130
