17
gdb 1978	4.49144	2.00149	1.83804	2.4305	60.71	-0.2487	0.0775	0.3261	774.6266	0.147939	-346.827596	-346.820264	-346.81932	-346.858807	27.341
C          0.32160        0.70560       -0.45440
O         -0.14010       -0.47520        0.16800
C         -1.55460       -0.53320        0.29450
C         -2.24830       -1.00590       -1.01750
C         -2.08630       -2.47080       -0.50780
O         -0.93600       -3.12210       -0.99740
C         -1.92040       -1.89270        0.92940
H          1.41190        0.64730       -0.49200
H         -0.06370        0.81480       -1.47830
H          0.03140        1.59770        0.12070
H         -1.92670        0.38400        0.77080
H         -3.29490       -0.69050       -1.06190
H         -1.75770       -0.76680       -1.96440
H         -2.92240       -3.15230       -0.67970
H         -0.18990       -2.53700       -0.81090
H         -1.15530       -2.35260        1.55890
H         -2.86770       -1.84380        1.47280
