14
gdb 4584	5.89562	1.57764	1.24766	1.9724	70.54	-0.1916	-0.0304	0.1612	915.9922	0.110257	-374.959663	-374.952781	-374.951837	-374.9903	26.86
N         -0.00560        1.39300        0.12050
C         -0.00720        0.00320        0.04640
C         -1.19220       -0.74600        0.04810
N         -1.19230       -2.07430        0.03120
C         -0.00660       -2.69200        0.03230
N         -0.00740       -4.08250        0.09170
C          1.17830       -1.94290        0.02760
N          1.17840       -0.61440        0.02470
H          0.87760        1.79340       -0.16350
H         -0.79510        1.85040       -0.31130
H         -2.16260       -0.25350        0.05610
H         -0.89400       -4.48000       -0.18590
H          0.77690       -4.53530       -0.35410
H          2.14870       -2.43540        0.01890
