17
gdb 13345	4.99382	1.19364	1.11222	3.1913	66.85	-0.2551	0.0174	0.2725	1093.1432	0.142827	-400.995963	-400.988039	-400.987095	-401.029988	27.626
N         -0.67610        1.25240       -0.37890
C         -0.33030        0.06110       -0.14700
O         -1.26450       -0.89470        0.01680
C         -0.80980       -2.25060        0.11370
C         -1.90790       -3.05800        0.81150
C         -2.78740       -3.46320       -0.37390
O         -1.86370       -3.76450       -1.41480
C         -0.72840       -2.91790       -1.28040
H          0.14790        1.84660       -0.44190
H          0.69950       -0.30940       -0.03890
H          0.14810       -2.27330        0.64420
H         -1.47190       -3.94640        1.27810
H         -2.41940       -2.46610        1.57190
H         -3.39230       -4.35560       -0.19420
H         -3.45350       -2.63670       -0.66290
H         -0.71960       -2.14450       -2.05990
H          0.17350       -3.53210       -1.38810
