13
gdb 21122	5.32134	1.65742	1.27846	1.751	68.58	-0.235	-0.0679	0.1671	894.67	0.096144	-390.898753	-390.891594	-390.89065	-390.931018	24.971
C         -0.00260        1.42520        0.05130
N          0.12490       -0.02010        0.03380
C          0.64820       -0.60930       -0.96760
C          0.79160       -2.05930       -0.97490
N          1.15910       -2.71890       -2.01950
N          1.40620       -1.94300       -3.10400
N          1.51830       -0.60360       -3.12970
N          1.16600        0.06520       -2.11860
H          0.53390        1.81040        0.92680
H          0.36680        1.93030       -0.84590
H         -1.05880        1.67890        0.20120
H          0.59180       -2.62140       -0.06810
H          1.79550       -2.41120       -3.90690
