17
gdb 12319	3.12871	2.07788	1.30299	3.498	72.24	-0.2249	-0.0438	0.181	934.2722	0.143242	-363.89086	-363.883235	-363.882291	-363.922718	28.494
C          0.04980        1.49900        0.04920
C          0.02890       -0.00180       -0.01990
C         -0.06300       -0.70190       -1.16060
C         -0.03590       -2.19980       -1.22460
N          0.54650       -2.76000       -0.01420
C         -0.08250       -2.25050        1.19720
C          0.05250       -0.73220        1.27340
O          0.09960       -0.15370        2.34040
H          0.97240        1.85070        0.52270
H         -0.02390        1.94270       -0.94690
H         -0.77190        1.87280        0.66840
H         -0.16720       -0.18070       -2.11000
H         -1.06970       -2.55510       -1.42710
H          0.56490       -2.51620       -2.08630
H          0.50090       -3.77220       -0.03680
H         -1.16640       -2.47870        1.27160
H          0.39950       -2.67850        2.07940
