13
gdb 2010	5.93688	2.13799	2.09202	2.2231	54.87	-0.2522	-0.0431	0.2091	652.3392	0.100545	-344.385047	-344.378878	-344.377934	-344.416181	22.114
O         -0.30080        0.35110       -0.56120
C          0.12440        1.15070        0.23230
C          1.38200        1.93080        0.01860
C          2.86120        1.45260        0.14360
C          2.81860        2.99120       -0.00470
C          1.79910        2.85330       -1.15980
O          1.68980        3.02940        0.96090
H         -0.38360        1.36700        1.19790
H          3.14010        1.08730        1.13210
H          3.27210        0.85840       -0.67480
H          3.61370        3.72240        0.13430
H          2.12270        2.37790       -2.08730
H          1.15040        3.71540       -1.31530
