16
gdb 15133	5.97228	0.92421	0.84299	1.8316	73.09	-0.2408	-0.0225	0.2183	1330.2545	0.130523	-379.932151	-379.924122	-379.923178	-379.965451	28.563
O         -0.80450        0.85890       -0.77080
C         -0.17750        1.58860       -0.03990
N          1.15670        1.44450        0.25980
C          1.96530        0.43390       -0.24730
N          3.18470        0.37220        0.08650
C          4.00580       -0.67650       -0.44340
C          4.25560       -1.91940        0.36770
C          3.49920       -2.01030       -0.94160
H         -0.61710        2.46390        0.47440
H          1.60140        2.10170        0.88540
H          1.43560       -0.23870       -0.92350
H          4.87950       -0.27470       -0.95030
H          5.26590       -2.30900        0.42370
H          3.67690       -2.03180        1.27820
H          2.43870       -2.22700       -0.88460
H          3.99230       -2.45440       -1.79930
