12
gdb 20524	5.06826	1.59252	1.22085	1.4105	56.88	-0.2797	-0.0847	0.195	902.8514	0.082898	-414.637371	-414.630403	-414.629459	-414.66928	24.023
C         -0.03400        1.49620        0.00930
C          0.03570       -0.01060        0.00290
O          1.07060       -0.63920       -0.00930
C         -1.25500       -0.75800        0.00980
N         -2.43410       -0.18830        0.02180
O         -3.33720       -1.19880        0.02460
N         -2.71820       -2.42810        0.01390
C         -1.44290       -2.17100        0.00480
H          0.97650        1.90470        0.00180
H         -0.59390        1.85210       -0.86160
H         -0.57790        1.84510        0.89320
H         -0.70170       -2.95360       -0.00480
