17
gdb 2708	10.34757	0.88058	0.85403	4.2327	62.71	-0.2765	0.01	0.2865	1331.5632	0.14672	-346.884834	-346.876296	-346.875352	-346.918999	28.467
C         -0.16050        1.47270        0.22300
C         -0.02410       -0.02660       -0.05510
C         -1.37880       -0.73430       -0.17210
C         -1.23370       -2.22540       -0.45050
O         -2.51760       -2.83530       -0.64680
C         -3.00960       -3.60620        0.33830
O         -4.08510       -4.12230        0.28400
H          0.81970        1.95260        0.30000
H         -0.71620        1.97380       -0.57690
H         -0.69590        1.65400        1.16130
H          0.54570       -0.17740       -0.98150
H          0.56590       -0.49510        0.74380
H         -1.95440       -0.59820        0.75250
H         -1.97180       -0.28440       -0.97720
H         -0.66900       -2.40060       -1.37150
H         -0.70340       -2.72930        0.36890
H         -2.30790       -3.71210        1.19030
