15
gdb 16287	3.40648	1.78193	1.44062	2.9892	66.53	-0.262	0.0094	0.2714	887.9157	0.118547	-362.638649	-362.63137	-362.630426	-362.67007	27.202
C         -0.06440        1.56170       -0.00660
C          0.09220        0.05950        0.04430
O          1.14970       -0.46100       -0.81850
C          1.70570       -1.20660        0.25160
C          2.21780       -0.32050        1.32940
C          0.72330       -0.62680        1.27210
C          0.00440       -1.23550        2.33580
N         -0.59630       -1.72250        3.19780
H          0.84910        2.07580        0.30260
H         -0.30650        1.87530       -1.02660
H         -0.88290        1.87330        0.65020
H         -0.84660       -0.44260       -0.21560
H          2.01140       -2.22980        0.06880
H          2.73020       -0.81790        2.14610
H          2.57610        0.67470        1.08690
