17
gdb 3263	3.36273	3.28831	1.81274	0.9605	65.78	-0.2326	0.0203	0.2529	722.748	0.150653	-309.720734	-309.714274	-309.713329	-309.75101	24.77
C         -0.02780        1.34630       -0.04750
C          1.25370        2.17770        0.06370
C          2.07310        1.98230        1.31670
C          2.34990        0.83460        1.93790
C          1.91310       -0.55570        1.54310
C          0.46670       -0.70310        1.06170
O          0.18760       -0.04640       -0.15860
H         -0.68440        1.56050        0.81150
H         -0.56170        1.63660       -0.95910
H          1.87570        1.96460       -0.81820
H          0.96790        3.23350       -0.01890
H          2.51400        2.88870        1.72690
H          2.99730        0.88530        2.81120
H          2.57590       -0.93780        0.75260
H          2.04500       -1.23100        2.39740
H          0.25860       -1.76360        0.88120
H         -0.22300       -0.35230        1.84680
