17
gdb 10324	2.21246	1.8013	1.20581	2.1347	66.49	-0.2314	-0.0452	0.1861	1048.6978	0.138813	-401.014914	-401.005536	-401.004592	-401.049698	32.073
C         -0.02990        1.50980       -1.11980
N          0.13780        0.24710       -0.41500
C          1.18850       -0.60000       -0.91120
C          1.92630       -1.29250        0.23460
O          1.73450       -1.02610        1.39270
C          0.75160       -1.70850       -1.90130
C         -0.72730       -1.97630       -2.03960
O          1.60310       -2.33340       -2.48930
H          0.89110        2.11560       -1.17930
H         -0.37170        1.33020       -2.14570
H         -0.79820        2.10420       -0.61810
H          0.28480        0.39050        0.57950
H          1.98920       -0.05500       -1.44860
H          2.65690       -2.05640       -0.09270
H         -1.23400       -1.10070       -2.45850
H         -0.88010       -2.84090       -2.68640
H         -1.17570       -2.13850       -1.05480
