13
gdb 20370	6.39112	1.43971	1.29458	3.2013	59.92	-0.2877	-0.0685	0.2191	907.1051	0.095889	-394.715088	-394.708645	-394.707701	-394.746745	23.195
C         -0.08880        1.45980       -0.13070
C          1.29200        0.91540        0.05440
C          0.10610       -0.03410        0.06520
C         -0.31260       -0.67030        1.31690
N         -0.26460       -0.14420        2.51000
O         -0.75460       -1.10680        3.33100
N         -1.09100       -2.21750        2.56970
N         -0.82840       -1.95920        1.36840
H         -0.53610        2.00260        0.69380
H         -0.39340        1.78950       -1.11720
H          1.95360        0.86430       -0.80250
H          1.78340        1.08820        1.00480
H         -0.03160       -0.67610       -0.79590
