18
gdb 16249	2.87181	2.32108	1.52867	1.2875	67.35	-0.2462	0.0869	0.3331	873.0523	0.153721	-384.926645	-384.919004	-384.918059	-384.958736	28.904
C         -0.14310        1.48410       -0.06660
C         -0.05480       -0.03250       -0.03000
O          0.80910       -0.50330       -1.07640
C          1.72740       -1.41820       -0.51000
O          1.21430       -1.81030        0.74040
C          0.55740       -0.66000        1.21890
C          1.18210        0.10190        2.35960
C         -0.07000       -0.73910        2.56270
H          0.84290        1.93450        0.07460
H         -0.53620        1.80980       -1.03320
H         -0.81750        1.85400        0.71340
H         -1.05320       -0.46400       -0.19600
H          1.81620       -2.30670       -1.14430
H          2.71340       -0.93450       -0.39610
H          2.11190       -0.29270        2.75360
H          1.08960        1.18150        2.39620
H         -1.01470       -0.22780        2.71810
H          0.03220       -1.67620        3.09830
