11
gdb 5662	5.53021	2.3263	1.63749	2.0358	57.36	-0.2207	-0.0192	0.2014	692.8929	0.075394	-397.4201	-397.41503	-397.414085	-397.44921	19.71
O         -0.05540        1.37390        0.01000
C          1.28090        1.70600       -0.00100
N          2.12370        0.71280       -0.01460
C          1.27880       -0.35970       -0.01220
C         -0.02760        0.01150        0.00240
C         -0.81940       -1.16970        0.00360
C          0.11770       -2.17020       -0.01080
O          1.41460       -1.70050       -0.02080
H          1.50280        2.76060        0.00260
H         -1.88860       -1.30000        0.01330
H          0.02410       -3.24300       -0.01580
