15
gdb 19811	4.21406	2.04456	1.83102	3.776	63.78	-0.2359	0.0257	0.2616	752.2504	0.120725	-362.637346	-362.631275	-362.630331	-362.66736	24.455
O         -0.05180        0.00730        0.09490
C         -0.00900        1.20530        0.03530
N         -1.00570        2.17300        0.00490
C         -0.09300        3.31840        0.02620
C          0.41660        3.86630        1.39030
C          0.53060        2.78260        2.42340
C          1.57870        2.86700        1.35380
C          1.08280        2.30990       -0.00940
H         -1.98220        2.09020        0.25270
H         -0.24990        4.05740       -0.75910
H          0.42790        4.91720        1.65130
H          0.85360        3.12590        3.40090
H         -0.17640        1.95900        2.45750
H          2.62330        3.02780        1.58540
H          1.80400        2.29060       -0.82300
