20
gdb 11794	3.93377	1.63383	1.50224	1.3254	74.43	-0.2615	0.0744	0.3359	934.6356	0.179251	-348.99388	-348.98647	-348.985526	-349.025334	29.479
O         -0.06310        1.40770       -0.16170
C          0.00090       -0.00220        0.02280
C         -1.40480       -0.54230        0.01180
C         -2.29830       -0.51650       -1.26670
C         -3.07830       -1.62370       -0.50290
C         -1.69330       -2.07360        0.04740
C         -3.65750       -0.83890        0.69110
C         -2.38620       -0.01680        1.08410
H          0.83370        1.75370       -0.14570
H          0.59060       -0.47890       -0.77730
H          0.48490       -0.25560        0.98160
H         -2.81950        0.41340       -1.51070
H         -1.77380       -0.89770       -2.14690
H         -3.74240       -2.31950       -1.01660
H         -1.10690       -2.62860       -0.69000
H         -1.65970       -2.58250        1.01660
H         -4.49790       -0.20180        0.39980
H         -4.00010       -1.49760        1.49480
H         -2.03700       -0.23720        2.09820
H         -2.52860        1.06280        1.00470
