11
gdb 4704	6.75649	1.39924	1.15918	0.4061	64.2	-0.2209	-0.0229	0.1979	931.4661	0.072311	-397.403167	-397.396604	-397.395659	-397.433838	24.435
O         -0.17150        1.25380        0.01180
C          0.04340       -0.05510        0.00270
N          1.17860       -0.68380       -0.00700
C          0.79820       -2.01680       -0.01340
C         -0.55900       -2.11950       -0.00680
O         -1.05540       -0.81190        0.00360
C         -1.46620       -3.18490       -0.00860
C         -2.23610       -4.11170       -0.01030
H          0.69580        1.67990        0.01020
H          1.52050       -2.81680       -0.02210
H         -2.91440       -4.92850       -0.01180
