18
gdb 14405	3.24476	2.56828	2.04426	1.2665	70.51	-0.2495	0.0796	0.3291	747.4603	0.156366	-347.771502	-347.765318	-347.764374	-347.801216	26.404
O         -0.02690        1.41430       -0.06220
C          0.01610        0.02530       -0.08290
C          0.43350       -0.81890       -1.29600
C         -0.33060       -1.93540       -0.52930
C          0.59740       -2.16260        0.68620
C          0.38930       -0.75170        1.26930
C         -1.12790       -0.76940        1.60080
C         -1.28590       -0.81160        0.07400
H          0.85930        1.74380        0.12260
H         -0.09920       -0.47940       -2.18900
H          1.49200       -0.98280       -1.52720
H         -0.73200       -2.80260       -1.04980
H          0.26300       -2.94960        1.36900
H          1.62670       -2.37940        0.38510
H          1.12750       -0.35580        1.96830
H         -1.50660       -1.59250        2.21500
H         -1.47870        0.18680        1.99600
H         -2.20350       -0.58210       -0.46560
