13
gdb 934	5.91694	2.64168	1.84728	2.678	60.88	-0.2478	-0.0379	0.2099	662.268	0.104175	-303.556846	-303.550797	-303.549852	-303.588065	21.246
C         -0.01000        1.52350        0.01030
C         -0.00440        0.01900        0.00220
C         -0.00330       -0.72630       -1.17730
N          0.02430       -2.05960       -1.20190
C          0.04840       -2.66240       -0.01270
N          0.03860       -2.07260        1.18320
C          0.01070       -0.73900        1.17340
H          1.01030        1.92490        0.00280
H         -0.52390        1.92370       -0.86840
H         -0.50710        1.91400        0.90300
H         -0.03010       -0.22460       -2.14400
H          0.07420       -3.74940       -0.01880
H         -0.00450       -0.24790        2.14570
