15
gdb 2068	4.71747	2.61696	1.80529	2.9432	58.62	-0.2305	0.0196	0.2502	694.2673	0.128248	-341.83678	-341.830553	-341.829608	-341.866969	23.356
N         -0.07200        1.31500       -0.19750
C         -0.01140        0.07570        0.04950
C         -1.27010       -0.77190        0.11250
N         -1.20820       -1.92930        1.00520
C          0.03260       -2.66580        0.77790
C          1.25930       -1.77860        0.94820
O          1.18540       -0.57650        0.16360
H          0.87120        1.70770       -0.25120
H         -2.10570       -0.12490        0.38200
H         -1.46380       -1.14200       -0.90440
H         -1.24060       -1.61340        1.97110
H          0.09380       -3.51340        1.46880
H          0.00440       -3.07180       -0.24140
H          1.37310       -1.49600        2.00540
H          2.17770       -2.28130        0.63060
