15
gdb 10459	2.95103	1.57604	1.17642	2.5512	67.92	-0.2468	-0.0299	0.2169	1010.7874	0.11626	-362.602408	-362.594093	-362.593149	-362.636	29.627
O          0.39410       -0.19710       -0.04000
C          0.12780        0.96630       -0.19780
C          1.10830        2.09910        0.05020
C          1.22880        3.02980       -1.15540
C          2.57510        3.59340       -1.48110
N          1.99300        2.55480       -2.33580
C          0.04440        3.80060       -1.45180
C         -0.94940        4.44660       -1.65230
H         -0.87640        1.29030       -0.54670
H          0.74850        2.67640        0.91270
H          2.07900        1.66490        0.30660
H          2.63910        4.57630       -1.93740
H          3.39550        3.33890       -0.81480
H          2.40610        1.64880       -2.12260
H         -1.82360        5.01670       -1.84960
