18
gdb 6721	5.81246	0.74664	0.71339	4.0008	66.35	-0.2744	0.0108	0.2852	1563.7283	0.151217	-422.100121	-422.090597	-422.089653	-422.135726	32.696
C         -0.18450        1.50830        0.34070
C         -0.06760        0.01650        0.03460
O          0.69700       -0.66350        1.03060
C         -1.43750       -0.64790       -0.15900
C         -1.31010       -2.12450       -0.51430
O         -2.60890       -2.70400       -0.70070
C         -3.00800       -3.65810        0.15820
O         -4.07950       -4.18160        0.09520
H          0.80770        1.94250        0.48860
H         -0.68160        2.04330       -0.47450
H         -0.77220        1.67290        1.25270
H          0.51830       -0.11230       -0.88480
H          0.31030       -0.45500        1.88870
H         -2.02690       -0.54710        0.76280
H         -1.99480       -0.13090       -0.94820
H         -0.76730       -2.25400       -1.45640
H         -0.76030       -2.65840        0.26830
H         -2.23650       -3.89990        0.91660
