18
gdb 17535	3.87113	1.83981	1.61918	2.1226	72.05	-0.2242	0.0738	0.298	866.4779	0.154569	-343.900786	-343.893517	-343.892572	-343.931973	28.438
C         -0.09380        1.52760       -0.01760
N          0.10440        0.08830        0.08070
C          1.37470       -0.55800       -0.14830
C          2.58240        0.25150        0.37630
C          1.90940        0.23640        1.76530
C          2.58750        0.06480        3.06550
N          1.81820        1.29460        2.77200
C          0.72590       -0.54820        1.22170
H          0.73710        2.14210        0.35140
H         -0.27360        1.78250       -1.06690
H         -0.98560        1.79380        0.55670
H          1.42960       -1.35950       -0.87670
H          3.51380       -0.32000        0.35340
H          2.75350        1.22700       -0.09090
H          2.15060       -0.57100        3.83170
H          3.67350        0.11670        3.08660
H          2.45700        2.05160        2.53740
H          0.18110       -1.32350        1.75030
