18
gdb 19086	3.96942	1.98701	1.55076	1.9432	69.38	-0.249	0.0764	0.3254	847.8849	0.156329	-347.780506	-347.774028	-347.773084	-347.811059	26.393
C         -0.03390        1.55060        0.03750
C          1.28540        0.82050        0.00460
C          2.15890        0.70640        1.25650
C          2.19820       -0.72350        1.78830
O          1.50170       -0.97810        3.01510
C          0.93640       -1.47950        1.79700
C         -0.31130       -0.77360        1.27360
C         -0.01270        0.04270        0.01350
H         -0.31760        2.03470        0.96810
H         -0.35690        2.07950       -0.85290
H          1.82880        0.84700       -0.93470
H          3.17170        1.05700        1.03960
H          1.76990        1.34390        2.05720
H          3.13970       -1.26390        1.69680
H          0.96790       -2.56520        1.71180
H         -1.10030       -1.50260        1.06910
H         -0.68190       -0.12510        2.07410
H         -0.30190       -0.42960       -0.92000
