12
gdb 10674	2.97898	2.05103	1.38841	5.6108	55.47	-0.2762	-0.0242	0.252	846.1578	0.083033	-414.672028	-414.664494	-414.66355	-414.704038	26.911
N          0.22800        0.81780        0.88350
C         -0.04210        0.10630       -0.23990
O          0.64390        0.06010       -1.23570
C         -1.31920       -0.72390       -0.13000
C         -1.42480       -1.75250        0.93310
O         -2.13470       -0.52170        1.03040
C         -2.03140       -0.92930       -1.37540
N         -2.62350       -1.09720       -2.35230
H          1.01930        1.44060        0.86830
H         -0.48870        0.93970        1.58050
H         -2.03690       -2.63220        0.75090
H         -0.58820       -1.87080        1.61790
