15
gdb 12451	3.59461	1.97879	1.36173	2.9835	63.23	-0.2603	-0.0221	0.2382	869.3243	0.120327	-399.837357	-399.830395	-399.829451	-399.868979	25.54
O         -0.24880       -0.17910       -0.21280
C         -0.07820        0.96950        0.07240
C         -1.11400        2.05590       -0.07790
C         -1.37600        2.79620        1.24390
C         -0.36300        3.91480        1.48720
N          1.04720        3.60840        1.40240
C          1.60570        2.55530        1.01990
O          1.15640        1.31810        0.58150
H         -0.78140        2.76690       -0.84540
H         -2.01200        1.56110       -0.45020
H         -2.37680        3.24000        1.21770
H         -1.37400        2.08400        2.07700
H         -0.54470        4.72620        0.76830
H         -0.53140        4.36160        2.47460
H          2.69260        2.49180        1.03140
