18
gdb 8075	3.66028	2.24297	1.78185	1.6301	71.43	-0.2314	0.0102	0.2416	804.1798	0.15499	-347.799616	-347.792863	-347.791919	-347.8299	27.756
C         -0.00430        1.54000        0.06090
C          0.00590        0.03440       -0.04760
C          0.73130       -0.65160       -1.23470
C          1.12600       -1.65460       -0.12720
O          0.97270       -0.58880        0.86040
C          0.00460       -2.65400        0.06880
C         -1.20970       -2.13340        0.24050
C         -1.36420       -0.62720        0.21580
H          0.99970        1.94260       -0.09800
H         -0.67980        1.97520       -0.68370
H         -0.34760        1.85110        1.05360
H          0.14590       -1.01710       -2.08040
H          1.57840       -0.05130       -1.57380
H          2.12850       -2.08640       -0.11540
H          0.20180       -3.72060        0.06190
H         -2.09110       -2.74570        0.40720
H         -1.76450       -0.26830        1.17410
H         -2.08790       -0.32330       -0.55340
