15
gdb 20564	4.5781	1.41819	1.38564	2.1876	62.98	-0.261	-0.0164	0.2447	939.9755	0.118775	-399.793712	-399.786157	-399.785212	-399.82611	27.341
C         -0.14500        1.57130       -0.02610
C          0.04970        0.05270        0.05240
O         -1.18760       -0.63090        0.21430
C          0.80130       -0.47920       -1.13440
C          1.99270       -1.11200       -1.30330
C          2.05220       -1.33980       -2.70470
N          0.99280       -0.88990       -3.32880
O          0.19410       -0.33450       -2.32870
H          0.81810        2.09070       -0.04850
H         -0.69610        1.84190       -0.93230
H         -0.71120        1.90970        0.84510
H          0.63200       -0.19500        0.94530
H         -1.69420       -0.51160       -0.59740
H          2.71220       -1.38110       -0.54850
H          2.83140       -1.82050       -3.27960
