15
gdb 17509	4.80392	1.78759	1.62557	4.2858	69.25	-0.2724	0.0169	0.2893	805.9271	0.120911	-325.491721	-325.48561	-325.484666	-325.521772	24.429
N          0.03160       -1.17720        0.02440
C          0.00400       -0.02080       -0.00360
C         -0.03270        1.41530       -0.04730
C         -1.10090        2.21990        0.75970
C         -0.93260        3.29950       -0.30460
C          0.55050        3.32530       -0.70920
C          1.27050        2.26110        0.11290
C         -0.39370        2.31640       -1.31320
H         -2.08280        1.74560        0.69850
H         -0.85640        2.44570        1.80280
H         -1.57780        4.14630       -0.49460
H          0.98210        4.19080       -1.19290
H          1.58220        2.48800        1.13760
H          2.10020        1.81830       -0.44250
H         -0.66610        2.06760       -2.32760
