19
gdb 15072	2.4296	1.93173	1.19867	3.5768	72.96	-0.2376	0.0289	0.2666	1046.6605	0.164921	-365.070343	-365.061573	-365.060629	-365.1044	31.553
C         -0.48270        1.14060        0.53880
C          0.27050       -0.14380        0.18210
N          0.65050       -0.26240       -1.22480
C          1.97980       -0.25840       -1.56400
O          2.45250       -0.48390       -2.65570
C         -0.36690       -0.67680       -2.15310
C         -1.39990        0.30930       -2.66510
C         -0.33700       -0.22760       -3.58380
H          0.10610        2.02320        0.27120
H         -1.44500        1.19980        0.02590
H         -0.67400        1.17020        1.61630
H          1.18800       -0.20340        0.77650
H         -0.33540       -1.01820        0.45520
H          2.60860        0.00490       -0.68860
H         -0.72750       -1.68810       -1.96770
H         -2.42150       -0.03940       -2.77060
H         -1.30420        1.34180       -2.35160
H          0.46560        0.43310       -3.87880
H         -0.61120       -0.96000       -4.33430
