17
gdb 12744	3.18154	1.78937	1.4887	4.2875	72.46	-0.2713	0.0294	0.3007	911.8796	0.14271	-326.721472	-326.713915	-326.712971	-326.753153	28.624
C         -0.04340        1.53360        0.00270
C          0.04130        0.03580        0.02740
C         -0.84110       -0.84310        0.86930
C          0.65030       -0.93420        1.04710
C          1.24960       -1.79640       -0.06570
C          0.64760       -0.80030       -1.12570
C         -0.27120       -1.33250       -2.12370
N         -1.01430       -1.76420       -2.89780
H          0.91130        1.98690       -0.28830
H         -0.80570        1.87450       -0.70790
H         -0.31300        1.92470        0.98870
H         -1.37230       -0.32020        1.65830
H         -1.39900       -1.66680        0.42940
H          1.13280       -0.70790        1.99010
H          2.34030       -1.79420       -0.09650
H          0.89280       -2.82820       -0.12330
H          1.44390       -0.25210       -1.63610
