16
gdb 19214	2.85448	2.76218	2.28205	1.352	62.73	-0.2427	0.0349	0.2776	710.7354	0.131019	-383.643026	-383.636739	-383.635794	-383.6731	25.185
C         -0.00910        1.58590       -0.23950
C          1.51140        1.64410        0.20310
C          1.41980        0.13080        0.53990
C          0.85210       -0.40090        1.87230
O         -0.50170       -0.43790        1.29270
C          0.01850        0.05910        0.04330
C          0.55320       -0.97390       -0.97020
O          1.90910       -0.83590       -0.41120
H         -0.68910        2.11490        0.43010
H         -0.21780        1.88500       -1.26910
H          2.20670        1.84100       -0.61440
H          1.74050        2.31350        1.03540
H          1.20260       -1.39780        2.15730
H          0.90000        0.27590        2.73320
H          0.16040       -1.98780       -0.84540
H          0.52570       -0.68660       -2.02750
