17
gdb 5533	3.14446	1.9142	1.23558	1.4538	72.73	-0.1756	0.0403	0.2159	988.3871	0.142295	-363.887451	-363.879094	-363.87815	-363.92074	29.916
C         -0.15530        1.40350        0.19350
N          0.43630        0.10620       -0.13080
C          0.82650       -0.71490        0.91510
C          0.73440       -2.06380        1.12580
C          0.05640       -3.07880        0.25830
C          1.43820       -2.29460        2.36200
C          1.87540       -1.09280        2.80340
O          1.51070       -0.10850        1.91920
H          0.55960        1.98960        0.77380
H         -0.35800        1.93850       -0.73740
H         -1.08920        1.33040        0.77180
H         -0.10020       -0.41010       -0.81360
H          0.75960       -3.62440       -0.38400
H         -0.47300       -3.82490        0.86070
H         -0.68740       -2.61510       -0.40030
H          1.57730       -3.24600        2.85330
H          2.41330       -0.75770        3.67340
