12
gdb 2736	4.63006	2.26359	1.63314	2.5599	57.51	-0.2471	-0.0336	0.2135	724.1551	0.088707	-323.323781	-323.31715	-323.316206	-323.354477	23.93
O         -0.05980       -0.01330       -0.07810
C         -0.05560        1.17010        0.02930
C         -1.10940        2.26840        0.21750
N         -0.00790        3.21860        0.51570
C          1.05470        2.27170        0.06100
C          2.19610        2.09470        0.93370
C          3.14180        1.91740        1.65360
H         -1.67270        2.45180       -0.70860
H         -1.81960        2.12160        1.03800
H         -0.03770        4.07920       -0.01770
H          1.39440        2.44770       -0.97270
H          3.97460        1.76600        2.29510
