20
gdb 7585	3.01197	1.60195	1.5266	2.0981	70.28	-0.2532	0.0607	0.3139	975.1391	0.175797	-386.132938	-386.124136	-386.123192	-386.16567	33.912
C         -0.40210        1.40360        0.04280
C         -0.03530       -0.08510        0.07320
O          0.55890       -0.48010       -1.15520
C          0.90820       -0.46280        1.22830
O          2.16980        0.16940        1.02720
C          0.28500       -0.38400        2.65240
C          0.07170       -1.92240        2.60380
C          1.05760       -1.99270        1.40560
H          0.49210        2.02790       -0.07250
H         -1.04690        1.60260       -0.81650
H         -0.92900        1.71780        0.94940
H         -0.95640       -0.67380        0.16820
H          1.48720       -0.22030       -1.08380
H          2.06420        1.11320        1.19170
H          1.04790       -0.10010        3.38240
H         -0.59450        0.24990        2.79190
H          0.34070       -2.48460        3.49970
H         -0.94950       -2.19190        2.32320
H          0.78970       -2.60810        0.54530
H          2.07460       -2.23570        1.72190
