17
gdb 6739	5.80086	0.888	0.77807	2.5429	71.79	-0.2392	0.0108	0.25	1436.2351	0.142014	-397.229904	-397.22084	-397.219896	-397.264029	32.283
C         -0.20130        1.31730       -0.00860
C         -0.51110       -0.17500       -0.15560
N          0.05750       -1.10590        0.80720
C          0.79450       -0.68090        1.74340
N          1.33140       -1.57130        2.66290
C          2.19320       -1.17550        3.67680
N          2.63460       -2.22130        4.46540
O          2.55400       -0.02630        3.83060
H          0.87230        1.52050       -0.08220
H         -0.70030        1.87500       -0.80670
H         -0.55690        1.71580        0.94760
H         -1.59970       -0.32300       -0.13770
H         -0.19540       -0.51440       -1.15170
H          1.08840        0.34880        1.94910
H          1.13120       -2.54670        2.49810
H          2.05090       -3.03620        4.57360
H          3.09940       -1.91620        5.30630
