18
gdb 12707	3.2267	1.83146	1.36761	1.1094	62.56	-0.2521	0.0417	0.2938	921.6762	0.154508	-422.081613	-422.073431	-422.072487	-422.114429	30.983
O          0.27090        1.29200       -0.33620
C          0.07820       -0.07240       -0.01830
C          0.70170       -0.50700        1.34540
C         -0.48100       -0.87590        2.25860
C         -1.53140       -1.41650        1.26920
O         -2.83640       -1.56050        1.77330
C         -1.43570       -0.42850        0.09270
O         -2.18740        0.73000        0.49100
H         -0.33760        1.77920        0.23430
H          0.53370       -0.63050       -0.84140
H          1.35170       -1.37570        1.19450
H          1.32720        0.29650        1.74130
H         -0.22960       -1.59990        3.03700
H         -0.88940        0.01380        2.75170
H         -1.21860       -2.40780        0.91710
H         -3.21350       -0.67120        1.77010
H         -1.85010       -0.83570       -0.83480
H         -2.48930        1.17730       -0.30430
