19
gdb 2337	6.06681	1.2573	1.15645	1.6906	68.37	-0.2566	0.0946	0.3511	1096.161	0.170159	-310.911406	-310.902926	-310.901982	-310.944548	30.111
C         -0.23910        1.51840        0.01620
C         -0.13790        0.00080       -0.15140
C          1.06340       -0.42980       -1.00570
C          1.14850       -1.93000       -1.14840
O          0.18320       -2.56770       -1.99770
C          1.56610       -2.65540       -2.36090
C          1.98820       -2.01370       -3.65800
H          0.65540        1.92590        0.50090
H         -0.34470        2.01790       -0.95340
H         -1.10370        1.79460        0.62760
H         -0.06930       -0.47520        0.83580
H         -1.05230       -0.38700       -0.61530
H          0.99540        0.04150       -1.99150
H          1.99370       -0.06960       -0.54450
H          1.29230       -2.45350       -0.19860
H          1.98940       -3.65060       -2.20280
H          1.54450       -1.02510       -3.78870
H          3.07880       -1.91760       -3.69940
H          1.67640       -2.63660       -4.50310
