10
gdb 498	11.45832	1.83316	1.76977	3.6197	44.97	-0.2788	-0.0017	0.2772	652.22	0.073313	-301.382062	-301.375865	-301.37492	-301.412562	20.073
O          0.07770        0.20050       -0.90220
C          0.04480        1.24390       -0.29070
N          1.11560        1.80550        0.34590
C          2.43070        1.19780        0.28350
C          3.43140        2.08990       -0.31380
N          4.21810        2.80900       -0.75890
H         -0.86860        1.85540       -0.17140
H          1.00840        2.69930        0.79860
H          2.78060        0.89380        1.27730
H          2.32400        0.29470       -0.32540
