16
gdb 18796	3.43129	2.46637	2.19753	2.2292	62.51	-0.2431	0.0639	0.307	703.5091	0.132552	-383.686797	-383.680907	-383.679963	-383.716507	24.359
O          0.18670        1.38070        0.08410
C          0.00770       -0.00310        0.00610
C         -1.43700       -0.60750        0.02920
C         -2.40010        0.15810       -0.91130
C         -1.68390       -0.47660       -2.12210
O         -0.40250        0.16260       -2.38250
C          0.24820       -0.65280       -1.37490
C         -1.01780       -1.52720       -1.18560
H         -0.03440        1.71850       -0.79540
H          0.62320       -0.47600        0.77920
H         -1.81780       -0.96630        0.98450
H         -3.42090       -0.22790       -0.82500
H         -2.42120        1.25010       -0.85170
H         -2.22980       -0.67060       -3.04710
H          1.24770       -0.96600       -1.68210
H         -1.08810       -2.60820       -1.25490
