18
gdb 634	5.6833	2.57368	1.96324	0.0271	63.63	-0.2725	0.0939	0.3665	699.4861	0.165637	-235.695309	-235.68805	-235.687106	-235.725942	26.909
C         -0.18410        1.42370        0.09670
C          0.08270       -0.07910       -0.06930
C          0.86550       -0.36520       -1.35880
C          0.80230       -0.64360        1.14330
C          0.03750       -1.03090        2.38280
C          0.66330       -2.09750        1.51500
H          0.75780        1.98000        0.17470
H         -0.73600        1.82660       -0.75920
H         -0.76510        1.62560        1.00210
H         -0.88870       -0.59000       -0.14200
H          1.84660        0.12430       -1.33530
H          1.03280       -1.43870       -1.49120
H          0.33130        0.00760       -2.23930
H          1.78450       -0.20560        1.31320
H          0.47910       -0.83030        3.35290
H         -1.04350       -0.93390        2.36060
H         -0.00070       -2.71150        0.91430
H          1.53230       -2.62550        1.89220
