18
gdb 6516	2.94782	1.80646	1.3912	2.0565	75.25	-0.2351	0.056	0.291	964.4054	0.149827	-347.759346	-347.750038	-347.749094	-347.792267	35.107
C         -0.07380        1.54920       -0.04380
C          0.01040        0.03900       -0.00130
O         -1.15830       -0.58840       -0.45440
C          1.31020       -0.67920       -0.24990
C          0.68800       -0.69310        1.15320
C          1.37890        0.08090        2.26960
C          0.09260       -1.92650        1.59720
C         -0.36840       -2.94740        2.03500
H          0.84020        2.03220        0.30730
H         -0.24270        1.88040       -1.07590
H         -0.91350        1.90220        0.56270
H         -1.20480       -0.46760       -1.40940
H          1.26500       -1.60400       -0.81290
H          2.21720       -0.09720       -0.37980
H          1.89200        0.96860        1.89270
H          0.65920        0.39640        3.03130
H          2.12410       -0.55540        2.75600
H         -0.79430       -3.84830        2.40040
