11
gdb 3884	3.83556	3.61386	1.86488	1.1279	48.34	-0.2026	0.011	0.2137	615.7505	0.080429	-372.752005	-372.745511	-372.744567	-372.782099	23.156
N         -0.10040        1.42650       -0.11230
C         -0.00820        0.04080       -0.05220
N         -1.05820       -0.77300        0.01160
N         -0.51110       -1.99210       -0.01250
N          0.81960       -2.03760       -0.09890
C          1.15630       -0.75820       -0.11920
O          2.42520       -0.29930       -0.17740
H          0.67960        1.89170        0.33220
H         -0.98120        1.76950        0.24730
H         -1.07260       -2.82390       -0.04110
H          3.01330       -1.06360       -0.19880
