15
gdb 1957	7.74872	1.5955	1.45819	2.1092	57.62	-0.2428	-0.0304	0.2124	839.2452	0.123321	-345.646965	-345.639631	-345.638687	-345.679153	25.381
C         -0.52410        1.40220       -0.13060
C          0.13170        0.03950       -0.18850
C          1.29400       -0.17220       -1.18720
C          2.12030       -0.50250        0.06630
O          1.02050       -0.19200        0.94640
C          2.54470       -1.94930        0.23800
O          2.87540       -2.67370       -0.66450
H          0.22900        2.19570       -0.10010
H         -1.15870        1.55570       -1.01030
H         -1.15090        1.48800        0.76240
H         -0.63000       -0.75030       -0.23130
H          1.19590       -0.99430       -1.89660
H          1.60350        0.73280       -1.71210
H          2.99400        0.13770        0.26240
H          2.51190       -2.29430        1.29620
