13
gdb 2517	3.31112	2.18752	1.39783	3.2799	55.61	-0.2636	-0.0593	0.2042	826.4272	0.100233	-340.632075	-340.624198	-340.623254	-340.665221	25.891
C         -0.22560        1.39230       -0.03750
N          0.26010        0.01220        0.02050
C          0.81470       -0.49280       -1.23330
C          1.20640       -1.96460       -0.97350
O          2.34560       -2.33060       -0.91330
C         -0.19070       -0.45390       -2.30270
N         -0.96590       -0.45290       -3.15930
H          0.53120        2.11700       -0.37920
H         -1.08250        1.44910       -0.71410
H         -0.56270        1.68440        0.95990
H          0.98350       -0.06590        0.72830
H          1.71460        0.03730       -1.58810
H          0.34120       -2.63250       -0.79250
