17
gdb 7908	3.45575	1.80598	1.28224	3.0676	73.68	-0.2404	-0.0208	0.2197	974.6691	0.142227	-363.905286	-363.897351	-363.896407	-363.937452	29.401
C         -0.10550        1.53630       -0.00580
C          0.02060        0.01470       -0.02290
O          0.85880       -0.39310       -1.12130
C          1.90610       -1.14180       -0.65220
N          2.82000       -1.65530       -1.36410
C          1.78820       -1.24920        0.81620
C          2.78650       -1.99960        1.63100
C          0.69050       -0.58280        1.18250
H          0.87330        1.99910        0.14730
H         -0.51970        1.89250       -0.95270
H         -0.77240        1.85100        0.80320
H         -0.97220       -0.42970       -0.18690
H          2.67570       -1.43550       -2.35060
H          2.84360       -3.04150        1.29940
H          3.78770       -1.57890        1.49160
H          2.53680       -1.97770        2.69440
H          0.30500       -0.45970        2.18680
