16
gdb 19536	3.62841	1.8498	1.66589	2.3667	59.33	-0.2481	0.0804	0.3285	826.0655	0.13165	-420.837383	-420.830389	-420.829445	-420.868905	26.254
O          0.19520        1.03240       -0.65870
C          0.01780        0.00400        0.30130
C         -1.37530       -0.60190        0.25790
C         -1.89900       -1.17420       -1.04230
O         -0.90790       -1.42000       -2.02760
C         -0.39380       -2.70720       -1.71790
O         -0.46340       -2.85070       -0.31120
C         -1.59050       -2.10000        0.08860
H          0.09360        0.60820       -1.51900
H          0.76470       -0.79110        0.18460
H          0.18350        0.46540        1.27930
H         -2.13330       -0.10170        0.85540
H         -2.88790       -0.95780       -1.43020
H         -0.99770       -3.48490       -2.21430
H          0.65050       -2.76380       -2.03570
H         -2.32620       -2.64980        0.66480
