16
gdb 2377	4.3187	2.24658	1.70166	3.211	62.11	-0.2409	0.0147	0.2556	774.9858	0.135121	-325.785959	-325.778053	-325.777109	-325.81818	27.646
C          0.28210        1.37620        0.24750
C          0.02420       -0.07330       -0.09050
C          0.81290       -0.76880       -1.17110
N          0.99440       -1.09450        0.22750
C          2.13380       -0.94850        1.00910
C          3.36500       -1.64450        0.45670
O          2.11420       -0.37120        2.07500
H          1.30470        1.66930       -0.00650
H         -0.40940        2.01780       -0.30780
H          0.14470        1.55370        1.31700
H         -1.00650       -0.39790        0.04740
H          0.35050       -1.53450       -1.78940
H          1.58960       -0.18860       -1.66630
H          3.81640       -1.03420       -0.33400
H          4.09350       -1.76830        1.25800
H          3.11160       -2.61400        0.02030
