12
gdb 9974	3.26739	1.44242	1.04204	4.0395	64.53	-0.2963	-0.0204	0.2758	1039.4273	0.082197	-340.365439	-340.357312	-340.356368	-340.398506	27.897
C         -0.02240       -1.21080        0.03550
C         -0.04490       -0.01060        0.01310
C         -0.03650        1.44260       -0.00540
C          1.41970        2.01480       -0.05040
C          2.12050        1.62200       -1.28030
N          2.66320        1.30170       -2.24710
C          1.40190        3.47660        0.09470
N          1.35280        4.62100        0.23680
H         -0.01540       -2.27320        0.04520
H         -0.59030        1.82710       -0.86780
H         -0.51850        1.84490        0.89180
H          1.97450        1.59720        0.79840
