20
gdb 7847	4.12616	1.06383	1.01688	2.7814	75.98	-0.2353	-0.0069	0.2284	1254.0621	0.174896	-349.017537	-349.008098	-349.007154	-349.052877	33.564
C         -0.09300        1.47850       -0.14860
C          0.32990        0.02630       -0.10210
C          1.77210       -0.36080        0.12400
C          0.73110       -0.67720        1.17570
C          0.72950        0.01040        2.53460
C          1.57740       -0.79330        3.52090
C          3.04380       -0.41750        3.62790
O          1.09820       -1.70250        4.15830
H          0.49940        2.10190        0.52760
H          0.03450        1.88420       -1.15820
H         -1.14690        1.59800        0.12630
H         -0.21360       -0.60430       -0.80150
H          2.20250       -1.17280       -0.45180
H          2.46710        0.44710        0.33600
H          0.42970       -1.71920        1.24080
H          1.10930        1.03310        2.44870
H         -0.29000        0.04830        2.93210
H          3.13860        0.59150        4.04670
H          3.56820       -1.12800        4.26820
H          3.50560       -0.39360        2.63490
