12
gdb 20502	9.23399	0.99808	0.90583	4.1065	69.11	-0.2445	-0.0449	0.1996	1202.9348	0.082642	-377.477792	-377.470364	-377.46942	-377.511718	25.066
C         -0.06000        1.45990        0.00400
C          0.00740        0.00850       -0.01940
C          0.05950       -1.19560       -0.04010
C          0.10970       -2.60300       -0.06750
C          1.12860       -3.46600        0.22210
O          0.71680       -4.71260        0.05630
N         -0.66280       -4.62070       -0.36870
N         -0.96640       -3.41010       -0.42590
H          0.66900        1.90280       -0.68350
H         -1.05490        1.80670       -0.29460
H          0.14360        1.85110        1.00680
H          2.14540       -3.30950        0.54220
