19
gdb 5869	3.62636	1.26379	1.19544	3.8238	71.82	-0.2799	0.0172	0.2971	1103.1067	0.16238	-365.075124	-365.065565	-365.064621	-365.10925	34.714
C          0.09330        1.47160        0.50350
C          0.04570        0.06090       -0.10060
C          0.96840       -0.90040        0.65830
C         -1.39080       -0.46720       -0.10690
O          0.37280        0.11520       -1.51450
C          1.67560        0.46740       -1.89310
C          2.58780       -0.69020       -2.01260
N          3.30270       -1.59110       -2.12340
H          1.10990        1.87620        0.53840
H         -0.53270        2.15540       -0.07670
H         -0.27780        1.45300        1.53260
H          0.62710       -1.00020        1.69320
H          0.96290       -1.89090        0.19620
H          2.00220       -0.54410        0.68910
H         -2.03960        0.20280       -0.67750
H         -1.42790       -1.45670       -0.56980
H         -1.77750       -0.54320        0.91320
H          1.60650        0.93500       -2.88190
H          2.13970        1.20240       -1.22300
