16
gdb 8636	2.46551	1.78591	1.3618	0.9995	72.45	-0.2667	0.0118	0.2785	984.2458	0.125912	-346.527857	-346.518451	-346.517507	-346.561261	34.534
C         -0.14810        1.55480        0.00290
C          0.01850        0.03540        0.00640
C          0.78660       -0.49980        1.24190
O          0.02470       -0.09570        2.38260
C          0.87320       -1.97050        1.17660
C          0.91980       -3.17040        1.13580
C          2.15060        0.05890        1.30820
C          3.25770        0.51920        1.38810
H          0.82250        2.05860       -0.02020
H         -0.71420        1.86790       -0.87920
H         -0.68490        1.88850        0.89350
H         -0.95770       -0.45960        0.01460
H          0.54980       -0.30290       -0.88790
H          0.49060       -0.40370        3.16820
H          0.96670       -4.23100        1.10020
H          4.23810        0.92260        1.45590
