19
gdb 14746	3.141	1.08867	0.85603	3.2845	73.2	-0.2405	0.0365	0.277	1382.3492	0.162825	-402.179027	-402.169213	-402.168269	-402.21477	33.023
C         -0.90120        0.56370        0.11720
O         -0.27480       -0.67930       -0.10430
C          0.59350       -0.67520       -1.21350
C          1.07280       -2.09640       -1.45420
O          0.04160       -2.92990       -1.96770
C         -0.78620       -3.50470       -1.06550
N         -1.80150       -4.13710       -1.45150
C         -2.61520       -4.76520       -0.43210
H         -0.16700        1.35750        0.32570
H         -1.50750        0.87250       -0.74780
H         -1.55420        0.44930        0.98540
H          0.07860       -0.30650       -2.11510
H          1.46440       -0.02140       -1.03130
H          1.86360       -2.09480       -2.20930
H          1.48120       -2.51090       -0.52310
H         -0.47670       -3.37630       -0.01900
H         -2.67010       -5.84460       -0.61610
H         -2.24800       -4.61000        0.59600
H         -3.64060       -4.38200       -0.49040
