13
gdb 309	10.23307	2.52788	2.17036	2.5981	51.1	-0.2304	-0.0233	0.2071	581.4874	0.107085	-286.476486	-286.470495	-286.469551	-286.505845	21.382
C         -0.04560        1.51210        0.11190
N         -0.00520        0.06650        0.05710
C         -1.24070       -0.67210        0.40430
C         -0.36960       -1.61840        1.24400
O         -0.53150       -2.66880        1.78560
C          0.80310       -0.64040        1.07670
H          0.94820        1.91930       -0.09890
H         -0.73120        1.89330       -0.65140
H         -0.37490        1.90240        1.09450
H         -1.94560       -0.11180        1.04250
H         -1.79050       -1.09990       -0.44080
H          1.75890       -1.04480        0.72700
H          0.97550       -0.06660        2.00360
