17
gdb 9633	3.98429	1.18884	1.07895	4.8404	69.92	-0.2786	0.0338	0.3123	1123.6603	0.140968	-363.86084	-363.851962	-363.851018	-363.894367	31.676
C          0.01150        1.56320       -0.15930
C          0.03100        0.04850       -0.00080
C          1.34340       -0.71690       -0.12940
C          0.66540       -0.64420        1.20560
C          1.25910        0.13040        2.35510
O          2.20810       -0.72070        2.98080
C         -1.14430       -0.60110       -0.53150
N         -2.09340       -1.10730       -0.95810
H          0.95050        2.00600        0.17810
H         -0.12530        1.83020       -1.21120
H         -0.80710        2.01160        0.41160
H          1.34030       -1.65790       -0.66560
H          2.22850       -0.10820       -0.28230
H          0.16020       -1.55050        1.52450
H          1.73410        1.05560        1.99690
H          0.46120        0.42110        3.05630
H          2.51820       -0.28650        3.78130
