20
gdb 13139	3.81019	1.15149	0.97448	2.292	71.76	-0.2435	0.0626	0.3061	1260.2939	0.175728	-386.121889	-386.112635	-386.111691	-386.156582	32.771
C          0.17620        1.48780       -0.11590
C          0.06410       -0.03070        0.03860
C          0.69410       -0.54770        1.33720
C          0.61950       -2.06180        1.44210
O          1.37120       -2.73640        0.39650
C          2.28610       -3.31360        1.34770
C          1.47390       -2.74860        2.53490
O          2.11690       -1.84430        3.40080
H          1.22400        1.80830       -0.12000
H         -0.27910        1.82800       -1.05140
H         -0.32400        2.01050        0.70740
H         -0.99300       -0.32730        0.00390
H          0.55040       -0.52950       -0.80730
H          1.74170       -0.23380        1.40050
H          0.18650       -0.11310        2.20830
H         -0.42880       -2.39090        1.42220
H          2.34170       -4.40540        1.25670
H          3.29490       -2.88660        1.27200
H          0.92540       -3.51530        3.09580
H          2.59250       -2.34630        4.06920
