14
gdb 804	8.02753	1.50998	1.33081	1.6073	57.9	-0.2421	0.0067	0.2488	858.7692	0.111964	-361.653332	-361.646166	-361.645221	-361.684535	26.231
O         -0.19470        1.35910        0.55870
N          0.01730       -0.02730        0.41940
C         -0.98010       -0.58250       -0.12730
C         -2.36020       -0.15060       -0.57740
C         -2.75690       -1.65120       -0.56630
O         -3.42490       -2.04550       -1.73840
C         -1.24440       -2.04400       -0.41450
H          0.61510        1.64340        0.99560
H         -2.90480        0.53560        0.07370
H         -2.36490        0.24480       -1.59880
H         -3.32840       -1.91200        0.33420
H         -3.63010       -2.98360       -1.67180
H         -0.83300       -2.36200       -1.37900
H         -0.96940       -2.76860        0.35560
