16
gdb 23864	3.47606	1.31196	1.18105	2.3904	54.73	-0.226	0.0753	0.3012	1044.882	0.125782	-511.417726	-511.409076	-511.408132	-511.451642	30.49
C          0.35280        1.30480        0.10390
N          0.05840       -0.11520       -0.04520
C          0.85470       -0.92810        0.86190
C         -1.35740       -0.41640        0.02740
C         -2.06370       -0.26780       -1.31550
F         -1.54520       -1.07620       -2.24390
F         -3.36390       -0.58270       -1.17790
F         -2.00980        0.98600       -1.79890
H          1.41860        1.47490       -0.07480
H         -0.21190        1.88480       -0.62620
H          0.11060        1.68650        1.11440
H          0.64150       -0.73410        1.93020
H          0.68110       -1.99000        0.66470
H          1.91610       -0.72370        0.69210
H         -1.49640       -1.46180        0.31540
H         -1.90850        0.19990        0.75940
