19
gdb 17826	4.57268	1.26527	1.09546	1.7607	71.86	-0.229	0.0769	0.3059	1111.7605	0.165403	-364.999739	-364.991518	-364.990573	-365.033251	29.574
C         -0.52210        1.25030        0.10720
N          0.05340       -0.08600        0.07090
C          1.37120       -0.24380       -0.52830
C          1.17980       -0.43030        0.94170
C          1.79540        0.51870        1.93540
C          1.25750        0.49870        3.38800
O          2.56690        0.21580        3.91980
C          3.12120        0.06890        2.59800
H          0.21060        2.06860        0.18720
H         -1.09280        1.40610       -0.81380
H         -1.21660        1.32560        0.95030
H          1.50290       -1.09680       -1.18920
H          1.89790        0.65800       -0.84290
H          1.11640       -1.45390        1.31410
H          1.86430        1.52960        1.53130
H          0.84950        1.43970        3.77520
H          0.54510       -0.31140        3.59720
H          3.40590       -0.97090        2.38470
H          3.99280        0.71450        2.43990
