20
gdb 15083	2.63545	1.49389	1.04628	3.2308	71.09	-0.2522	0.079	0.3312	1169.5412	0.175931	-386.116675	-386.107502	-386.106558	-386.150845	33.168
C         -0.32980        1.47340       -0.25830
C          0.01400       -0.01610       -0.15590
C          1.05470       -0.49980       -1.18430
C          2.47870        0.00800       -0.88630
O          3.35930       -0.17480       -1.97500
C          1.05030       -2.01660       -1.23390
C          0.53380       -2.77930       -2.37680
O          1.94510       -2.64680       -2.17110
H          0.54150        2.11030       -0.07990
H         -0.72160        1.71900       -1.25130
H         -1.09200        1.74700        0.47750
H          0.37560       -0.24470        0.85600
H         -0.90490       -0.60230       -0.28450
H          0.78550       -0.11850       -2.17820
H          2.46120        1.08330       -0.68190
H          2.85180       -0.48640        0.02900
H          3.23530       -1.07970       -2.28890
H          1.04850       -2.50810       -0.25860
H          0.14470       -3.78560       -2.23320
H          0.13670       -2.24420       -3.23800
