11
gdb 21877	3.75886	2.08117	1.33952	3.9764	54.35	-0.2698	-0.0538	0.216	811.4162	0.073746	-430.756066	-430.749724	-430.74878	-430.786794	22.591
O          0.12140        1.31150        0.14920
C          0.07980       -0.00930       -0.00720
N          0.07740       -0.68090       -1.12350
C          0.02540       -1.98250       -0.67020
N         -0.00360       -2.14480        0.62800
N          0.03200       -0.84100        1.08180
C          0.01940       -0.48140        2.44130
O         -0.02330       -1.26360        3.34370
H          0.15060        1.70320       -0.73440
H          0.00920       -2.82550       -1.34500
H          0.05430        0.61510        2.55030
