20
gdb 9408	4.80324	0.78728	0.71248	3.1537	73.53	-0.2476	-0.0203	0.2272	1591.729	0.173709	-386.14108	-386.130818	-386.129874	-386.177792	34.344
C          0.07560        1.37650        0.07860
O          0.02820       -0.02980        0.06910
C         -1.28570       -0.53520       -0.01330
C         -1.20130       -2.05790       -0.01890
C         -2.57460       -2.76150       -0.01280
C         -3.38770       -2.51900       -1.29820
C         -2.34860       -4.25330        0.14700
O         -2.73050       -4.92100        1.07210
H          1.12670        1.66820        0.14180
H         -0.35820        1.80750       -0.83800
H         -0.46280        1.79860        0.94210
H         -1.88730       -0.18960        0.84600
H         -1.77990       -0.15920       -0.92440
H         -0.61990       -2.37560       -0.89350
H         -0.63030       -2.36120        0.86600
H         -3.15180       -2.43680        0.86030
H         -3.60670       -1.45730       -1.43640
H         -2.83830       -2.86470       -2.18130
H         -4.34220       -3.05290       -1.26380
H         -1.77580       -4.71390       -0.69470
