17
gdb 17250	4.63425	1.59717	1.53087	1.7718	67.2	-0.2252	0.0716	0.2968	881.2175	0.143402	-363.773121	-363.76622	-363.765276	-363.804245	26.868
O          0.16540        1.31310       -0.26370
C         -0.01780       -0.03060        0.16450
C         -1.44990       -0.46360        0.12090
C         -2.61500       -0.07260        1.01670
N         -3.38840       -1.26970        0.49650
C         -3.61330       -0.86810       -0.95050
C         -2.11720       -0.98360       -1.18320
C         -2.02760       -1.84740        0.03970
H         -0.22140        1.38800       -1.14250
H          0.60010       -0.73010       -0.42320
H          0.35660       -0.06040        1.19390
H         -2.38920       -0.22000        2.07670
H         -3.11610        0.89160        0.87710
H         -4.18100       -1.65190       -1.45890
H         -4.11620        0.09670       -1.08260
H         -1.55540       -1.07280       -2.10600
H         -1.65550       -2.84090        0.24640
