18
gdb 11577	3.36456	1.14231	0.95159	1.6538	64.28	-0.2567	0.0603	0.317	1232.2374	0.151883	-422.040579	-422.031521	-422.030577	-422.074862	32.256
O          0.36190        0.20860        1.01060
C         -0.21680        0.28950       -0.28110
C         -1.53080       -0.49410       -0.40410
O         -2.10690       -0.29230       -1.69060
C         -1.35740       -1.97990       -0.07120
C         -2.67840       -2.70130        0.02470
C         -2.89550       -3.81460        0.95500
O         -3.40560       -2.51210        1.24550
H         -0.22040        0.66810        1.62470
H         -0.39790        1.32860       -0.59140
H          0.52800       -0.13330       -0.96850
H         -2.25940       -0.06550        0.29710
H         -1.50570       -0.66800       -2.34410
H         -0.73480       -2.44940       -0.84800
H         -0.81550       -2.06810        0.87540
H         -3.30230       -2.64900       -0.86770
H         -3.64540       -4.57260        0.73240
H         -2.07600       -4.14770        1.59140
