17
gdb 10745	3.12486	1.67524	1.42423	2.4789	69.91	-0.2405	0.0278	0.2683	946.628	0.139683	-363.795883	-363.786974	-363.78603	-363.828892	32.982
C         -0.11170        1.59400        0.04420
C          0.05030        0.06440       -0.01410
O          0.83580       -0.39320        1.09440
C         -1.26880       -0.58730        0.00980
C         -2.35180       -1.10630        0.06440
C          0.80440       -0.33870       -1.28400
C          2.28540       -0.36950       -1.29510
N          1.50290       -1.62130       -1.35410
H          0.87690        2.05830        0.07560
H         -0.65290        1.96170       -0.83240
H         -0.67210        1.88550        0.93720
H          0.25480       -0.45920        1.85860
H         -3.30420       -1.57570        0.09960
H          0.27140       -0.06630       -2.19160
H          2.82230       -0.11850       -2.20550
H          2.80170       -0.13480       -0.37010
H          1.49580       -2.03030       -0.42120
