13
gdb 7031	6.86293	1.07405	0.94138	7.5775	60.5	-0.2519	-0.0299	0.2221	1145.8925	0.094952	-431.962017	-431.953702	-431.952758	-431.99594	27.706
N          0.45650        1.17400       -0.24380
C          0.10500        0.00020        0.06840
N         -1.21570       -0.45090        0.06370
C         -2.37990        0.32350       -0.04250
O         -2.43500        1.51560        0.01310
N         -3.50250       -0.52350       -0.22990
C         -4.83970       -0.16300       -0.10170
O         -5.26520        0.87800        0.31230
H          1.46860        1.26240       -0.17220
H          0.77930       -0.81500        0.36070
H         -1.33550       -1.42280        0.29950
H         -3.33640       -1.45210       -0.58880
H         -5.48730       -1.00320       -0.42760
