18
gdb 9409	6.70143	0.77349	0.7249	1.9309	66.75	-0.2565	-0.0393	0.2172	1531.4243	0.1507	-422.071549	-422.062034	-422.06109	-422.106682	32.405
C         -0.03640        1.37150        0.08100
O         -0.08420       -0.03140       -0.02090
C          0.67280       -0.52720       -1.10220
C          0.59690       -2.04850       -1.07440
C          1.37830       -2.67850       -2.23850
O          2.73550       -2.32830       -2.20310
C          1.22370       -4.18540       -2.22100
O          2.17950       -4.92180       -2.18240
H          0.99250        1.73560        0.22960
H         -0.44530        1.86160       -0.81720
H         -0.64120        1.65820        0.94470
H          0.27740       -0.14350       -2.06020
H          1.72210       -0.20380       -1.02990
H          1.00510       -2.41100       -0.12460
H         -0.45480       -2.35550       -1.12440
H          0.92040       -2.33380       -3.18620
H          3.22170       -3.16820       -2.18770
H          0.18540       -4.57460       -2.24360
