16
gdb 16357	2.55996	2.38436	1.44622	3.9913	66.94	-0.2553	0.0162	0.2715	885.3776	0.130634	-379.89188	-379.884372	-379.883428	-379.923586	28.075
C         -0.30170        1.48890        0.03630
C          0.12450        0.03870        0.00290
O          1.38560       -0.15500       -0.73000
C          2.00210       -0.74870        0.36090
N          3.15480       -1.21690        0.50080
C          0.79960       -0.57700        1.23520
C          0.69740       -0.20500        2.66400
N          0.29310       -1.54250        2.20000
H          0.47970        2.11360        0.47740
H         -0.50940        1.85040       -0.97520
H         -1.21650        1.60200        0.62830
H         -0.64800       -0.60160       -0.43860
H          3.69860       -1.14020       -0.35990
H          1.59790       -0.18820        3.27020
H         -0.06830        0.51370        2.94600
H         -0.72070       -1.60270        2.12760
