18
gdb 7428	3.08681	1.56867	1.28725	3.3427	71.28	-0.2291	-0.0368	0.1923	1027.7539	0.151196	-381.133948	-381.124062	-381.123118	-381.169536	33.522
C          0.02230        1.31890       -0.01810
N         -0.27380       -0.08030       -0.28910
C         -0.49410       -0.89560        0.89600
C          0.30710       -0.64210       -1.40480
N          1.06280        0.03580       -2.18560
C         -0.09860       -2.07320       -1.76120
C         -1.57800       -2.31560       -2.00090
O          0.74080       -2.92020       -1.95850
H          1.02730        1.45510        0.40630
H         -0.02680        1.88480       -0.94790
H         -0.71530        1.70350        0.69260
H         -0.69180       -1.93450        0.62560
H          0.37860       -0.88810        1.56640
H         -1.35620       -0.51670        1.45500
H          1.34570       -0.53530       -2.98080
H         -1.87860       -1.75530       -2.89500
H         -1.75570       -3.37920       -2.16660
H         -2.19360       -1.94210       -1.17920
