15
gdb 19604	3.15359	2.66375	1.87931	4.1415	63.96	-0.2428	0.0021	0.2449	738.3743	0.11917	-362.6151	-362.608624	-362.60768	-362.645523	25.2
C          0.12470        1.57690        0.09690
C          0.08010        0.06730       -0.03340
C          0.77140       -0.68020       -1.18010
C          1.18290       -1.72990       -0.22430
C          2.26560       -0.80290       -0.76660
C          2.31030       -0.22180        0.60240
O          3.10450        0.32080        1.30230
N          0.94980       -0.74740        0.93490
H          1.13050        1.97680       -0.05740
H         -0.54200        2.03430       -0.64120
H         -0.21170        1.87950        1.09340
H         -0.94510       -0.29770        0.08040
H          0.49120       -0.78160       -2.22260
H          1.14520       -2.80570       -0.15600
H          3.05020       -1.00020       -1.48420
