17
gdb 4142	4.6301	1.51494	1.32155	0.8502	70.7	-0.2398	0.0106	0.2505	948.1058	0.143335	-363.826812	-363.819738	-363.818794	-363.858035	27.855
O         -0.11070        1.35550        0.12430
N          0.04100       -0.04230        0.04140
C         -1.08310       -0.62610       -0.07460
C         -2.45830        0.00080       -0.19420
C         -3.29830       -1.08280       -0.85460
C         -2.76670       -1.65610       -2.14520
C         -2.51390       -2.38270       -0.84810
C         -1.17540       -2.13800       -0.16610
H          0.80400        1.65430        0.16060
H         -2.84520        0.24540        0.80410
H         -2.41170        0.94010       -0.75270
H         -4.37010       -1.07700       -0.69450
H         -3.48270       -2.09370       -2.83190
H         -1.93390       -1.15470       -2.63130
H         -3.00980       -3.33180       -0.68170
H         -0.31550       -2.56480       -0.69040
H         -1.18600       -2.57010        0.84370
