16
gdb 7923	3.53902	1.77621	1.24113	0.8327	67.4	-0.2553	-0.0057	0.2496	950.285	0.132115	-379.990485	-379.983004	-379.982059	-380.022702	27.872
C         -0.17820        1.54830        0.03550
C          0.07000        0.04010       -0.00360
C          0.90920       -0.46630       -1.19570
C          1.90010       -1.46640       -0.60720
O          2.66220       -2.19940       -1.18560
N          1.78680       -1.36310        0.77360
C          0.82030       -0.46760        1.22740
N          0.55320       -0.11420        2.41570
H          0.76730        2.10020        0.00700
H         -0.78260        1.86330       -0.82040
H         -0.69880        1.82020        0.95580
H         -0.89880       -0.47410       -0.00110
H          0.32660       -0.94030       -1.98790
H          1.48590        0.34140       -1.66080
H          2.38900       -1.89680        1.38380
H          1.15540       -0.57340        3.10090
