20
gdb 11135	3.58485	1.23273	1.05082	2.5687	71.41	-0.2462	0.0716	0.3177	1195.2419	0.176536	-386.127953	-386.119076	-386.118132	-386.162097	32.257
C         -0.14130        1.34800        0.59030
C         -0.11340       -0.12810        0.18380
C         -1.48420       -0.64790       -0.21110
C         -1.67670       -2.17200       -0.37590
C         -2.73030       -2.02660        0.73900
C         -2.49650       -2.74230        2.05800
O         -3.28300       -2.16390        3.07980
O         -2.43780       -0.61170        0.88830
H          0.84760        1.69090        0.90790
H         -0.46480        1.98230       -0.24230
H         -0.83880        1.50190        1.41860
H          0.56670       -0.27930       -0.66540
H          0.27050       -0.73860        1.01060
H         -1.87500       -0.06490       -1.05740
H         -2.04640       -2.50740       -1.34530
H         -0.80340       -2.76770       -0.09650
H         -3.77010       -2.16800        0.41740
H         -2.78760       -3.79620        1.97860
H         -1.42230       -2.70620        2.30540
H         -3.11040       -1.21500        3.03530
