18
gdb 4119	2.65005	1.82754	1.22921	1.0611	72.13	-0.2283	0.0037	0.232	1025.0429	0.152368	-381.06199	-381.053177	-381.052233	-381.095177	32.324
C         -0.46180        1.09470       -1.46990
C          0.24390       -0.15530       -0.96230
N          1.71070       -0.21870       -1.25870
C          2.04780       -0.57040        0.15690
C          3.15700        0.25960        0.78540
C          0.60710       -0.25560        0.50910
N          0.04850       -0.11510        1.63350
O         -1.32220        0.18400        1.49360
H          0.06640        1.99260       -1.13870
H         -0.48250        1.09630       -2.56470
H         -1.48870        1.13120       -1.09760
H         -0.30880       -1.05180       -1.28410
H          1.96500       -0.93310       -1.93180
H          2.25780       -1.64200        0.29820
H          2.95830        1.32580        0.64980
H          3.23070        0.04830        1.85670
H          4.12010        0.02690        0.31960
H         -1.60200        0.28100        2.41010
