14
gdb 10236	2.35334	1.99113	1.19855	2.48	69.49	-0.2501	-0.0262	0.224	991.0232	0.102069	-345.344604	-345.335485	-345.334541	-345.379141	31.824
C         -0.26570        1.46340       -0.04140
C          0.05250       -0.00940        0.10260
O          0.30950       -0.53710        1.14880
C          0.05390       -0.81960       -1.24570
C          0.60160       -2.16290       -1.08370
C          1.06570       -3.26230       -0.96110
C         -1.30020       -0.83290       -1.80590
C         -2.42010       -0.82580       -2.24020
H          0.56030        1.96400       -0.56100
H         -1.16550        1.61110       -0.64420
H         -0.38940        1.90870        0.94600
H          0.69940       -0.25180       -1.93400
H          1.47130       -4.23660       -0.84290
H         -3.40700       -0.83540       -2.63270
