17
gdb 8301	6.13666	0.98545	0.91975	4.0812	66.62	-0.2487	0.0377	0.2865	1259.8604	0.141377	-401.009842	-401.001371	-401.000426	-401.043713	29.685
C         -0.00320        1.36890       -0.13450
O         -0.03120       -0.04000       -0.13640
C         -1.30260       -0.56950        0.16650
C         -1.19790       -2.08100        0.10470
C         -2.53760       -2.87260        0.08920
C         -2.11600       -3.33360       -1.33230
O         -2.58610       -4.02580       -2.19330
N         -0.94580       -2.62030       -1.23530
H          1.01620        1.67590       -0.37960
H         -0.69250        1.79140       -0.88220
H         -0.27180        1.77990        0.85120
H         -1.63110       -0.25640        1.17280
H         -2.05580       -0.21520       -0.55800
H         -0.47200       -2.42940        0.84740
H         -2.61960       -3.67780        0.82050
H         -3.44330       -2.26260        0.10950
H         -0.19150       -2.45780       -1.88540
