14
gdb 17933	3.36348	2.52853	2.02115	3.2135	62.1	-0.2083	-0.0562	0.1521	707.6134	0.106709	-378.56878	-378.562351	-378.561407	-378.598834	25.593
N         -0.27260        1.55070        0.05750
C         -0.11630        0.15130       -0.01660
C         -1.11250       -0.93140       -0.22720
C         -0.75690       -1.56900       -1.59490
N          0.75090       -1.62810       -1.55610
C          0.99120       -0.84600       -0.58990
O          1.37530       -1.32210        0.67510
C         -0.02840       -0.89730        0.98980
H          0.56190        2.00240        0.41810
H         -0.47700        1.95130       -0.85220
H         -2.14450       -0.81820        0.10000
H         -1.07160       -2.61270       -1.68480
H         -1.19650       -1.00690       -2.43360
H         -0.30130       -0.96500        2.03610
