14
gdb 11276	5.28664	1.37848	1.167	5.022	65.28	-0.275	-0.0562	0.2188	993.438	0.107936	-378.74634	-378.738953	-378.738009	-378.778637	25.985
C          0.04890        1.52790        0.03420
C         -0.00320        0.00190       -0.00480
C          0.77990       -0.63240       -1.19040
O          1.73090       -1.52780       -0.55800
C          1.52830       -1.36820        0.77110
N          0.62820       -0.58230        1.19720
C          2.39300       -2.14320        1.61840
N          3.08890       -2.76650        2.29740
H          1.08560        1.87850        0.05820
H         -0.43870        1.94990       -0.85050
H         -0.46080        1.90360        0.92440
H         -1.05130       -0.31870       -0.01330
H          0.15930       -1.22520       -1.86550
H          1.34590        0.10300       -1.76980
