22
gdb 12703	3.24731	1.69958	1.31875	1.5318	77.52	-0.237	0.0768	0.3138	1037.0611	0.200401	-350.223742	-350.214833	-350.213889	-350.256688	33.784
C         -0.71710        1.30350       -0.03100
C          0.11740        0.02490        0.00010
C          1.23050       -0.02670       -1.06860
O          2.29490       -0.80550       -0.52880
C          1.90370       -1.32280        0.74720
C          3.15700       -1.61100        1.55670
C          0.90160       -0.28800        1.30060
C          1.56990        0.93410        1.94070
H         -0.09700        2.19520        0.10350
H         -1.23460        1.40450       -0.99120
H         -1.48030        1.30140        0.75440
H         -0.55610       -0.82380       -0.17470
H          0.87520       -0.47210       -2.00780
H          1.61270        0.97730       -1.30160
H          1.35940       -2.27290        0.59990
H          3.75130       -0.70580        1.70360
H          2.89590       -2.02480        2.53620
H          3.77880       -2.34210        1.03230
H          0.24160       -0.75960        2.03770
H          2.27120        1.41830        1.25340
H          0.82650        1.67790        2.24140
H          2.12790        0.65180        2.83820
