17
gdb 7602	3.34129	1.62073	1.32258	14.7207	67.26	-0.1671	-0.0318	0.1353	960.794	0.141353	-400.944569	-400.935845	-400.934901	-400.977944	31.314
C          0.01810        1.54360       -0.07690
C          0.02640        0.03430       -0.02890
C          1.32720       -0.72750       -0.20180
C          0.62680       -0.71790        1.11870
N          1.27090        0.08100        2.22080
H          1.55890        0.99240        1.84950
H          0.60080        0.25690        2.97350
H          2.09040       -0.38400        2.62080
C         -1.26270       -0.70360       -0.58920
O         -2.03360        0.03360       -1.21220
O         -1.28320       -1.91850       -0.30640
H          0.98710        2.01760        0.16250
H         -0.25430        1.84380       -1.09070
H         -0.75270        1.95950        0.58080
H          1.28840       -1.66530       -0.74330
H          2.25420       -0.16300       -0.29560
H          0.10390       -1.59560        1.48090
