16
gdb 20567	4.52633	1.49652	1.1682	1.429	65.83	-0.2374	0.0204	0.2579	993.631	0.132124	-379.93995	-379.932309	-379.931365	-379.97237	28.274
C          0.10190        1.38110        0.94140
C         -0.11200        0.30380       -0.12490
O          0.90950       -0.69290       -0.07070
C         -1.47910       -0.32580       -0.05660
C         -1.79590       -1.62550       -0.40620
N         -3.12750       -1.76650       -0.20350
N         -3.71690       -0.64780        0.25630
C         -2.71920        0.22760        0.34630
H          1.11570        1.78190        0.86220
H         -0.60730        2.20610        0.82120
H         -0.03430        0.96520        1.94620
H          0.02970        0.76360       -1.11170
H          0.81490       -1.14690        0.77490
H         -1.17880       -2.42840       -0.77510
H         -3.68900       -2.58860       -0.34650
H         -2.92430        1.22820        0.69770
