14
gdb 4886	5.27878	1.38862	1.15152	5.7927	60.2	-0.2011	0.036	0.2372	995.181	0.108102	-415.898206	-415.890671	-415.889727	-415.930426	27.072
C          0.08130        1.36000        0.32570
N         -0.10790        0.14320       -0.47450
C         -1.19330       -0.66210       -0.14780
C         -1.29880       -1.93410        0.26930
O         -2.63970       -2.29500        0.33960
C         -3.40400       -1.21180       -0.02660
O         -4.60280       -1.20330       -0.08400
N         -2.50450       -0.19600       -0.29440
H          0.93670        1.91120       -0.07150
H         -0.79920        2.00150        0.23530
H          0.24750        1.15880        1.39390
H          0.73970       -0.40780       -0.51430
H         -0.57430       -2.68330        0.53220
H         -2.78170        0.64950       -0.76190
