18
gdb 19912	4.03555	1.75655	1.55998	1.2076	71.1	-0.2048	0.0755	0.2803	890.9233	0.153612	-347.709616	-347.702303	-347.701359	-347.741153	28.375
C          0.24540        1.21750        0.21800
O         -0.43290        0.10070       -0.32430
C          0.36320       -0.61660       -1.21690
C          1.43100       -1.62820       -0.89630
C          1.10120       -2.68010        0.19550
C         -0.24110       -2.52110        0.86700
C         -0.16850       -3.06970       -0.53330
C          0.12720       -2.02370       -1.64180
H          1.13160        0.91380        0.79270
H          0.56610        1.91460       -0.57170
H         -0.45570        1.73120        0.87940
H          0.67390        0.00030       -2.06770
H          2.42980       -1.53680       -1.30710
H          1.86710       -3.33350        0.59270
H         -0.43490       -3.28370        1.61710
H         -0.67470       -1.55450        1.07320
H         -0.51430       -4.06350       -0.78560
H          0.00460       -2.27190       -2.68960
