18
gdb 15600	2.45629	2.25378	1.54995	3.1229	67.35	-0.2367	-0.0265	0.2102	897.1507	0.153522	-384.954483	-384.946382	-384.945438	-384.987323	29.217
C         -0.64650        1.38980       -0.05220
C          0.02350        0.01640       -0.03180
C          1.30070       -0.10320       -0.88310
C          2.01060       -1.32740       -0.28210
O          1.45470       -1.52940        1.02540
C          0.55800       -0.48990        1.33620
C          1.23530        0.62620        2.12600
O          2.42150        0.82920        2.12600
H          0.04900        2.18480        0.23710
H         -1.00840        1.62170       -1.05850
H         -1.50720        1.43010        0.62380
H         -0.69820       -0.73650       -0.37100
H          1.08480       -0.22180       -1.94770
H          1.91450        0.79500       -0.76160
H          1.83070       -2.23730       -0.86780
H          3.09190       -1.17920       -0.19690
H         -0.24930       -0.89920        1.95860
H          0.53710        1.26960        2.71160
