17
gdb 11927	3.22658	1.8414	1.46344	1.7702	76.42	-0.2375	0.0335	0.271	919.0573	0.141147	-326.660939	-326.653059	-326.652115	-326.692712	30.345
C          0.01330        1.54280        0.00860
C         -0.05210        0.04860        0.07550
C         -1.31990       -0.81740       -0.02520
C         -0.69390       -1.82580        0.99000
C          0.56150       -0.93450        1.06680
N          1.12690       -0.72970       -0.27500
C          1.37300       -0.73040        2.22020
C          2.02060       -0.56800        3.22130
H          1.00080        1.89220        0.31950
H         -0.16380        1.89310       -1.01540
H         -0.74270        1.99910        0.65580
H         -2.20990       -0.32650        0.37600
H         -1.55130       -1.19240       -1.02810
H         -1.24390       -1.86750        1.93190
H         -0.51390       -2.84790        0.64090
H          0.92570       -1.51440       -0.89430
H          2.60600       -0.42300        4.09510
