13
gdb 4606	5.7853	1.58451	1.24591	6.7434	64.99	-0.206	-0.0549	0.1511	895.1487	0.098102	-394.835409	-394.828634	-394.82769	-394.866386	25.353
N          0.02170        1.45880        0.15140
C         -0.02930        0.05720        0.03760
C         -1.17560       -0.68050        0.01700
N         -1.09290       -2.04070       -0.00310
C          0.10740       -2.77570       -0.02920
O          0.07910       -3.98770       -0.06060
N          1.26760       -2.00600       -0.01570
C          1.17980       -0.70980        0.02340
H          0.77280        1.86930       -0.38940
H         -0.84880        1.91390       -0.09100
H         -2.17140       -0.25160        0.02490
H         -1.93190       -2.60240       -0.01270
H          2.12490       -0.16050        0.04480
