16
gdb 1136	5.16316	1.91285	1.81172	3.9727	61.35	-0.2442	0.04	0.2842	767.4844	0.135678	-325.812885	-325.805432	-325.804488	-325.844193	27.847
C         -0.06070        1.54650        0.01190
C         -0.03720        0.01920       -0.01870
C         -1.41540       -0.57900        0.25900
C          0.72030       -0.60600       -1.23880
C          1.74020       -1.13880       -0.20510
O          2.74990       -1.79030       -0.23810
N          1.03290       -0.56520        0.82070
H          0.93310        1.95650       -0.18860
H         -0.75520        1.93740       -0.73880
H         -0.38970        1.91330        0.99080
H         -2.14190       -0.23780       -0.48560
H         -1.37950       -1.67180        0.23270
H         -1.78300       -0.27360        1.24510
H          0.17860       -1.38630       -1.77680
H          1.13570        0.11090       -1.94960
H          1.19090       -0.55590        1.81830
