14
gdb 11238	4.54537	1.47848	1.25285	3.1796	63.31	-0.2706	-0.0034	0.2671	953.9676	0.107708	-378.755457	-378.748	-378.747056	-378.787893	26.109
C         -0.17690        1.38830        0.16410
C          0.00880       -0.07450       -0.03460
N         -0.18980       -0.73700       -1.09650
C          0.12650       -2.13400       -0.80700
C          0.53830       -2.13330        0.70560
O          0.45120       -0.74690        1.08070
C         -0.34340       -2.93560        1.55880
N         -1.03570       -3.59490        2.20730
H          0.76470        1.84960        0.47730
H         -0.51860        1.84270       -0.76480
H         -0.90910        1.57030        0.95660
H         -0.73980       -2.77360       -0.99580
H          0.94580       -2.48230       -1.44280
H          1.56900       -2.46520        0.85950
