15
gdb 11521	4.86571	1.06141	0.96056	3.8226	62.12	-0.2817	0.0063	0.2879	1173.6666	0.117569	-399.778459	-399.770195	-399.769251	-399.811932	28.885
O         -0.31100        1.31450        0.07220
C          0.04040       -0.04890       -0.08200
C          0.92180       -0.30320       -1.32170
C          0.19920        0.10000       -2.58420
C          0.33490       -0.66470       -3.82870
O         -0.83150       -0.79490       -3.01320
C          0.69120       -0.57210        1.13560
N          1.23310       -0.95370        2.08230
H          0.48310        1.80820        0.30850
H         -0.90730       -0.58070       -0.21850
H          1.85760        0.26120       -1.22020
H          1.18070       -1.36600       -1.36590
H         -0.07360        1.15250       -2.64910
H          0.18320       -0.16990       -4.78650
H          0.98690       -1.53690       -3.85450
