20
gdb 6841	3.22365	1.44048	1.2897	2.3091	71.32	-0.2421	0.0658	0.3078	1071.2425	0.174867	-386.128971	-386.119737	-386.118793	-386.162682	33.927
C          0.08740        1.61400       -0.02800
C         -0.30800        0.15790       -0.29970
C          0.73210       -0.56360       -1.13380
O          2.01040       -0.69390       -0.46070
C          2.16620       -2.04580       -0.93310
C          0.68220       -2.09370       -1.38600
C         -0.22500       -2.91470       -0.48070
O          0.44290       -2.36950       -2.75060
H          1.05080        1.65870        0.48750
H          0.18000        2.17920       -0.96170
H         -0.65830        2.11570        0.59580
H         -0.44620       -0.36940        0.65050
H         -1.26620        0.11910       -0.83420
H          0.86080       -0.05120       -2.09970
H          2.86370       -2.11520       -1.77840
H          2.48050       -2.72710       -0.13340
H         -0.05110       -2.68620        0.57410
H         -1.27840       -2.72980       -0.71090
H         -0.02580       -3.98520       -0.61980
H          0.32770       -3.31980       -2.85510
