19
gdb 9268	2.61529	1.3915	1.07475	3.2891	71.94	-0.2825	0.0126	0.295	1171.5494	0.163294	-365.074865	-365.06524	-365.064296	-365.110194	33.61
C          0.01100        1.46900        0.73090
C         -0.15880        0.11900        0.03060
C         -1.57620       -0.44460        0.12530
C         -1.74550       -1.73940       -0.66900
O         -1.82980       -0.66550        1.52620
C         -3.17760       -0.74370        1.89710
C         -3.89290        0.54390        1.76540
N         -4.44710        1.55160        1.65350
H          1.04030        1.82860        0.64210
H         -0.64750        2.22730        0.29350
H         -0.23250        1.38770        1.79290
H          0.09780        0.20890       -1.03160
H          0.53080       -0.61920        0.45880
H         -2.28530        0.31270       -0.24310
H         -2.75710       -2.14770       -0.58030
H         -1.56080       -1.55780       -1.73210
H         -1.03810       -2.49700       -0.31770
H         -3.73590       -1.50000        1.32600
H         -3.20100       -1.04640        2.94870
