15
gdb 3462	5.60994	2.52705	2.48854	1.7912	60.4	-0.2343	0.0024	0.2367	621.8447	0.125884	-308.468255	-308.462522	-308.461578	-308.497335	23.04
C         -0.10550        1.53470       -0.00330
C         -0.01460        0.01820        0.01160
C          1.24510       -0.61730       -0.68070
O          2.01750       -0.24050        0.50750
C          0.78470       -0.62660        1.20130
C          0.68910       -2.12250        0.86070
C          1.00630       -2.11610       -0.43650
H          0.86190        1.98200        0.23560
H         -0.42340        1.89530       -0.98780
H         -0.84290        1.88690        0.72660
H         -0.97190       -0.45450       -0.22490
H          1.66220       -0.26740       -1.62480
H          0.71810       -0.28630        2.23450
H          0.41700       -2.92990        1.52400
H          1.07270       -2.91670       -1.15800
