15
gdb 13750	4.29655	1.45689	1.223	5.2641	64.37	-0.2514	-0.0408	0.2105	984.3818	0.116629	-399.809925	-399.801687	-399.800743	-399.843294	28.442
C         -0.16930        1.30120        0.18320
C          0.32720       -0.10410       -0.07850
O          0.81580       -0.80170        0.78110
C          0.18990       -0.59270       -1.49910
C          1.45550       -1.11870       -2.16030
N          0.38140       -1.99240       -1.80260
C          0.49340       -3.03820       -0.88200
O          1.41010       -3.81630       -0.86610
H          0.26840        2.00530       -0.53320
H         -1.25620        1.34120        0.04420
H          0.07870        1.59910        1.20200
H         -0.53450       -0.06950       -2.11920
H          1.60780       -0.93570       -3.22010
H          2.34970       -1.15830       -1.54320
H         -0.40790       -3.12870       -0.25210
