15
gdb 4972	3.27376	2.30568	1.36442	1.2072	70.72	-0.2271	-0.0158	0.2113	865.3144	0.120302	-362.731014	-362.724002	-362.723058	-362.761956	26.785
C          0.02410        1.49790        0.02990
C          0.02230       -0.01040        0.02300
N         -0.04990       -0.62450       -1.16080
C         -0.05330       -1.95880       -1.19620
C          0.01510       -2.74910       -0.05320
C          0.09060       -2.12380        1.18440
C          0.09430       -0.73370        1.22620
O          0.16850       -0.12880        2.44480
H          0.93860        1.90730        0.48040
H         -0.03650        1.85710       -0.99780
H         -0.83010        1.90890        0.58510
H         -0.11330       -2.41290       -2.18170
H          0.00950       -3.83080       -0.12970
H          0.14620       -2.68200        2.11230
H          0.16200        0.82630        2.32650
