16
gdb 21151	3.23822	1.90729	1.22315	4.0673	69.13	-0.1992	0.0187	0.2179	975.5912	0.13046	-379.918418	-379.910101	-379.909157	-379.951803	28.978
C         -0.09690        1.46320       -0.05980
N         -0.02960        0.03140        0.20050
C         -1.14860       -0.74760        0.09700
C         -1.31130       -2.11090        0.00850
C         -0.25730       -3.17190       -0.04430
C         -2.72210       -2.23630       -0.00190
N         -3.36340       -1.09500        0.06700
O         -2.33320       -0.12460        0.12720
H          0.87450        1.90450        0.17190
H         -0.35900        1.70280       -1.09970
H         -0.84660        1.91640        0.59170
H          0.81310       -0.42860       -0.10800
H          0.28230       -3.27710        0.90540
H         -0.70140       -4.14440       -0.27330
H          0.49190       -2.97320       -0.82190
H         -3.30130       -3.14920       -0.05990
