10
gdb 21819	3.8241	2.07244	1.34405	3.0687	50.97	-0.2861	-0.0755	0.2106	795.4999	0.061061	-446.785626	-446.779307	-446.778362	-446.816433	21.959
O         -0.04380       -0.06230       -0.00050
C         -0.01250        1.13210        0.00760
N          1.17490        1.89070        0.00020
N          2.43610        1.33670       -0.01750
N          3.27470        2.28190       -0.01950
N          2.60780        3.46690       -0.00360
C          1.23630        3.29810        0.00970
O          0.34070        4.10350        0.02540
H         -0.88280        1.80730        0.02210
H          3.11520        4.33630       -0.00240
