15
gdb 1536	8.55667	1.12668	1.0143	2.4739	54.13	-0.2464	-0.0109	0.2355	1088.3156	0.12189	-382.788561	-382.779744	-382.7788	-382.824214	28.864
O         -0.16680        1.44930        0.01140
C          0.01930        0.04140        0.00200
C         -1.36370       -0.59300        0.01210
C         -1.31910       -2.11260        0.00350
O         -0.28510       -2.73420       -0.00930
C         -2.68220       -2.80150        0.01230
O         -2.51080       -4.19340        0.00400
H          0.70080        1.86360        0.00540
H          0.57050       -0.29180       -0.88850
H          0.58780       -0.30140        0.87790
H         -1.92280       -0.25070        0.89290
H         -1.93990       -0.24130       -0.85390
H         -3.22960       -2.44330        0.90200
H         -3.24510       -2.43470       -0.86410
H         -3.38180       -4.60060        0.00930
