13
gdb 119	20.50649	2.07478	1.95249	0.078	53.93	-0.2401	0.0631	0.3033	652.4812	0.112761	-195.196751	-195.18988	-195.188936	-195.228146	22.115
C         -0.17310        1.53380        0.04530
C          0.15150        0.03160       -0.04710
C          0.80570       -0.48780        1.14990
C          1.34430       -0.89300        2.14790
C          1.99620       -1.39330        3.35020
H          0.73870        2.11950        0.19120
H         -0.66110        1.87770       -0.87180
H         -0.84040        1.73560        0.88770
H         -0.77360       -0.53010       -0.23160
H          0.79020       -0.14990       -0.92130
H          1.40970       -2.19020        3.82120
H          2.98810       -1.80220        3.12680
H          2.12770       -0.59860        4.09310
