16
gdb 5072	3.39234	1.9427	1.25318	2.8618	68.58	-0.1748	0.0472	0.222	943.9948	0.131165	-379.950989	-379.942523	-379.941579	-379.983612	30.983
C          0.04850        1.54400        0.12290
C          0.02380        0.06040       -0.01500
C          0.08140       -0.74390       -1.12970
O          0.17900       -0.34030       -2.42520
C          0.02250       -2.10670       -0.72080
N          0.06390       -3.15950       -1.68620
C         -0.07130       -2.10940        0.65630
N         -0.06950       -0.80270        1.06680
H          0.90300        1.89840        0.71470
H          0.12670        1.99350       -0.86980
H         -0.86130        1.93900        0.59410
H          0.19460       -1.16300       -2.93730
H         -0.77030       -3.73660       -1.65720
H          0.85810       -3.77530       -1.54530
H         -0.13790       -2.92190        1.36210
H         -0.12700       -0.50220        2.02320
