13
gdb 21597	3.5561	2.27867	1.39022	5.1367	66.25	-0.2014	-0.0318	0.1697	812.6527	0.098675	-394.809674	-394.803179	-394.802235	-394.840024	25.27
N          0.01460        1.39430        0.13340
C         -0.05730        0.02800        0.04570
C         -1.19760       -0.72470        0.02430
N         -1.11770       -2.09030       -0.01270
N          0.00510       -2.79430       -0.03100
C          1.12360       -2.11020       -0.01710
C          1.23520       -0.66590        0.01450
O          2.29700       -0.03720        0.00460
H          0.95170        1.72530       -0.06570
H         -0.73730        1.94740       -0.24450
H         -2.20050       -0.31440        0.03850
H         -1.95720       -2.64640       -0.02730
H          2.03680       -2.69520       -0.04120
