15
gdb 7334	4.53664	1.20067	0.96079	1.8293	59.38	-0.2486	-0.0426	0.2059	1175.011	0.117284	-437.003342	-436.994438	-436.993494	-437.037837	30.463
C          0.03690        1.48250       -0.09760
C          0.01590       -0.03070       -0.02430
O          0.68080       -0.53390       -1.20590
C          0.75640       -1.85270       -1.31090
O          0.32100       -2.64940       -0.51120
C          1.48570       -2.27640       -2.60800
N          1.54370       -3.62610       -2.69420
O          1.92870       -1.48710       -3.41150
H          1.06350        1.85700       -0.12870
H         -0.48600        1.83700       -0.98970
H         -0.45830        1.90050        0.78390
H          0.53990       -0.41140        0.85810
H         -1.00230       -0.43170       -0.00110
H          1.14500       -4.18390       -1.95720
H          1.99730       -4.05360       -3.48320
