15
gdb 17753	3.95487	2.62385	2.15382	0.8041	62.6	-0.2177	0.0664	0.2841	671.2264	0.12027	-362.557541	-362.55192	-362.550975	-362.586769	23.831
O         -0.09250        1.36760        0.01920
C          0.06180       -0.00680        0.00520
C          1.04650       -0.82600        0.86900
N          0.84120       -1.95190       -0.11230
C         -0.63620       -2.21630       -0.07200
C         -0.94860       -1.49010       -1.34670
C         -1.25150       -0.82380       -0.01200
C          0.48310       -0.92790       -1.20930
H          0.77840        1.77360       -0.04940
H          2.08100       -0.47030        0.79920
H          0.79380       -1.05280        1.90910
H         -1.06270       -3.11210        0.36010
H         -1.57800       -1.74990       -2.18560
H         -2.19980       -0.57930        0.44550
H          1.21910       -0.70670       -1.98060
