20
gdb 14752	12.58178	0.59135	0.5749	1.0616	79.	-0.256	0.0556	0.3116	1933.944	0.174069	-348.969622	-348.959488	-348.958544	-349.005543	34.918
C         -0.06100        1.48720        0.08640
C          0.01730       -0.03790       -0.01740
C          0.73010       -0.49800       -1.28150
O          0.75960       -1.91060       -1.30010
C          1.40030       -2.44210       -2.43490
C          1.35730       -3.96980       -2.31780
C          1.99780       -4.62940       -3.44730
C          2.53200       -5.14760       -4.39090
H          0.93730        1.93850        0.10190
H         -0.60570        1.91810       -0.76100
H         -0.57670        1.79260        1.00130
H          0.54460       -0.45210        0.84960
H         -0.98880       -0.47250       -0.00770
H          0.20970       -0.11510       -2.17680
H          1.75730       -0.09420       -1.31180
H          0.89610       -2.12140       -3.36090
H          2.44570       -2.09870       -2.49660
H          1.84380       -4.26230       -1.37980
H          0.31010       -4.28460       -2.23630
H          3.00020       -5.61840       -5.21920
