16
gdb 14064	3.49497	1.6415	1.50204	1.7347	60.77	-0.2168	0.0381	0.2549	897.7634	0.129195	-420.817636	-420.809733	-420.808789	-420.849951	29.129
O          0.02910        1.41720        0.22790
C          0.05520        0.01990        0.07020
C         -0.53110       -0.80650        1.21160
O         -0.98570       -0.12660        2.34370
C         -1.28120       -0.63750       -0.07990
C         -2.64050        0.01170       -0.27960
C         -2.85960       -1.15620       -1.26920
O         -1.52960       -1.68050       -1.01840
H          0.86390        1.68500        0.62900
H          0.88760       -0.38780       -0.50130
H         -0.08280       -1.76880        1.44270
H         -0.89390        0.81510        2.14230
H         -3.27730        0.01390        0.60650
H         -2.62000        1.00800       -0.72300
H         -3.63480       -1.87760       -0.98920
H         -2.98760       -0.87390       -2.31960
