13
gdb 20638	7.45485	1.2817	1.10116	3.2044	69.94	-0.2547	-0.0325	0.2223	1021.7467	0.094477	-361.433783	-361.426471	-361.425527	-361.46548	26.439
C          0.05000        1.50270       -0.01000
C         -0.08500        0.02320        0.05540
C         -1.11200       -0.83800       -0.16400
C         -0.54080       -2.12380        0.07930
N          0.73340       -2.03040        0.41870
O          1.01570       -0.67450        0.40200
C         -1.18350       -3.38500       -0.00840
C         -1.76250       -4.43530       -0.09330
H          0.81210        1.79350       -0.74010
H         -0.90030        1.95440       -0.29970
H          0.34970        1.91100        0.96050
H         -2.12380       -0.61230       -0.45400
H         -2.26140       -5.37030       -0.16430
