11
gdb 23755	3.32771	2.33054	1.37063	3.0354	55.2	-0.2587	-0.0367	0.2221	782.4336	0.072751	-446.706029	-446.700271	-446.699327	-446.736051	21.749
F          0.01260        0.01310        0.00370
C         -0.03120        1.34270        0.01100
C         -1.23210        2.02360        0.03000
C         -1.19910        3.41910        0.03660
C          0.03540        4.05290        0.02370
N          1.19860        3.38750        0.00520
C          1.15600        2.08120       -0.00080
F          2.30690        1.42220       -0.01910
H         -2.16080        1.46490        0.03930
H         -2.11580        3.99620        0.05140
H          0.10640        5.13620        0.02820
