15
gdb 14253	3.92127	1.77321	1.66723	4.4194	61.33	-0.2399	0.0095	0.2494	826.4147	0.119166	-399.792897	-399.785935	-399.784991	-399.824083	26.175
C         -0.04750        1.55320       -0.02440
C          0.08390        0.04920        0.05160
O          1.09900       -0.48640       -0.84480
C          1.72280       -1.23450        0.21800
C          0.76640       -0.62210        1.27420
N          1.92340        0.06870        1.83500
C          2.84340       -0.39650        0.90370
O          4.00430       -0.16430        0.72300
H          0.88870        2.04430        0.25400
H         -0.29850        1.85430       -1.04580
H         -0.84600        1.90260        0.63940
H         -0.87640       -0.43980       -0.16290
H          1.87240       -2.29130       -0.00290
H          0.15710       -1.18000        1.98360
H          1.97300        0.88330        2.43170
