16
gdb 18941	6.50423	1.50437	1.43999	0.7361	75.26	-0.2523	0.0486	0.3009	890.9711	0.130744	-309.355596	-309.349165	-309.348221	-309.385952	25.923
C         -0.08130       -1.27930       -0.09800
C         -0.06370       -0.07690       -0.05990
C         -0.03940        1.37170       -0.01100
C          0.01880        2.07300        1.37310
C          1.55370        1.80320        1.54360
C          1.84850        3.28410        1.85570
C          0.74270        3.33050        0.78260
C          1.33340        2.09660        0.01940
H         -0.09830       -2.34030       -0.13300
H         -0.76660        1.80200       -0.70970
H         -0.73330        2.06410        2.16310
H          2.00210        0.90340        1.96330
H          1.58010        3.64050        2.85540
H          2.83340        3.66300        1.56470
H          0.25490        4.19210        0.32400
H          2.10100        2.11500       -0.75540
