12
gdb 886	7.11928	2.15393	1.67086	5.1359	52.05	-0.2139	0.0278	0.2418	700.8791	0.090834	-360.574465	-360.568217	-360.567273	-360.604415	22.67
C         -0.00970        1.52110        0.04960
C         -0.00500        0.03710       -0.04010
C         -0.06350       -0.79350       -1.09010
O         -0.02880       -2.10840       -0.67030
C          0.05620       -2.12300        0.70880
O          0.10380       -3.11480        1.38280
N          0.06950       -0.79590        1.08260
H          0.90330        1.89890        0.52480
H         -0.07520        1.95650       -0.94990
H         -0.86180        1.88650        0.63490
H         -0.12980       -0.62090       -2.14970
H          0.12610       -0.51360        2.04510
