19
gdb 13987	5.35358	1.17382	1.08966	1.0419	72.38	-0.2323	0.0722	0.3045	1153.9726	0.165303	-365.001626	-364.993407	-364.992463	-365.034877	29.875
C         -0.10890        1.43520       -0.12450
O         -0.02800        0.03420       -0.23040
C         -1.22880       -0.61230        0.14260
C         -1.02070       -2.09240        0.04830
C         -1.24010       -2.85690       -1.19530
N         -2.19240       -3.05490       -0.08430
C         -1.48130       -3.97290        0.87990
C         -0.32590       -2.96190        1.09650
H          0.85880        1.84290       -0.42670
H         -0.89040        1.85090       -0.78050
H         -0.32410        1.75690        0.90720
H         -1.51190       -0.32970        1.17170
H         -2.06180       -0.31540       -0.51640
H         -1.67520       -2.33020       -2.03900
H         -0.56680       -3.66880       -1.46420
H         -2.10020       -4.13810        1.76380
H         -1.22220       -4.94230        0.44150
H          0.69450       -3.28100        0.86810
H         -0.33820       -2.51590        2.09340
