17
gdb 1895	3.51483	2.91994	2.19637	1.4419	64.38	-0.2481	0.0747	0.3228	686.904	0.148548	-309.67203	-309.665257	-309.664313	-309.702169	26.574
C         -0.02960        1.46730        0.06490
C         -0.00210       -0.03620        0.01840
C          0.61690       -0.96000       -1.07520
C          0.01810       -1.94030       -0.02870
C          0.63570       -1.01520        1.06080
C         -1.23070       -1.00930       -0.02810
O         -2.18040       -1.03700        1.00040
H          0.97970        1.88590        0.14420
H         -0.49490        1.87900       -0.83740
H         -0.60890        1.81720        0.92660
H          0.14690       -0.93910       -2.06340
H          1.70680       -0.94840       -1.14970
H          0.03820       -3.03000       -0.05950
H          1.72740       -1.00470        1.12720
H          0.20820       -1.04210        2.06940
H         -1.80440       -0.98930       -0.95940
H         -1.72920       -1.11860        1.84670
