16
gdb 16646	2.80775	2.35805	1.69067	2.9368	63.81	-0.2401	-0.0311	0.209	814.8815	0.13078	-383.752158	-383.745045	-383.744101	-383.783517	26.834
C          0.63800        1.47160       -0.03360
C         -0.01370        0.07910       -0.00270
C          0.33760       -0.82390       -1.21560
C          1.36180       -1.81710       -0.69170
O          2.45790       -1.18500       -0.03640
C          1.42180       -1.77100        0.78090
C          0.44530       -0.71580        1.23630
O          0.05840       -0.55250        2.36510
H          1.72300        1.38660       -0.13280
H          0.25700        2.05340       -0.87880
H          0.41360        2.01800        0.88680
H         -1.09690        0.20350        0.08790
H         -0.54390       -1.36750       -1.57230
H          0.73640       -0.25460       -2.06120
H          1.60450       -2.72260       -1.24200
H          1.71530       -2.59230        1.42650
