11
gdb 3777	8.13715	2.14346	1.71455	1.1809	50.1	-0.2483	-0.0165	0.2319	680.6174	0.078092	-376.547304	-376.541009	-376.540065	-376.578657	20.968
C          0.02640        1.43560        0.09870
N          0.33940        0.01550        0.11890
C          0.65740       -0.56410       -0.93480
O          0.96810       -1.91420       -0.98890
C          1.25260       -2.15070       -2.28230
N          1.17030       -1.14920       -3.06890
O          0.77920       -0.08130       -2.21490
H          0.70310        1.95900        0.78220
H          0.09980        1.90070       -0.89090
H         -0.99010        1.58150        0.47900
H          1.52830       -3.15140       -2.57570
