17
gdb 21095	3.36809	2.01212	1.29012	4.6508	71.49	-0.2329	0.0096	0.2424	952.6668	0.141777	-360.062636	-360.053924	-360.05298	-360.096522	29.823
C          0.01280        1.44230       -0.01220
N          0.00400       -0.00150        0.07380
N         -0.05380       -0.74260       -1.05280
N         -0.05150       -1.99380       -0.69380
C          0.00770       -2.07720        0.66600
C          0.02900       -3.39380        1.37370
C          0.04370       -0.79430        1.17800
C          0.10990       -0.26990        2.57190
H          0.92700        1.85490        0.42560
H         -0.03130        1.70130       -1.06990
H         -0.85230        1.87040        0.50340
H          0.99070       -3.58330        1.86420
H         -0.74940       -3.46050        2.14140
H         -0.13990       -4.19180        0.64750
H          1.02270        0.31100        2.75060
H         -0.74140        0.37940        2.80830
H          0.10190       -1.09910        3.28270
