16
gdb 19651	5.44588	1.69582	1.60453	1.4387	67.35	-0.2166	0.0641	0.2807	829.5796	0.130029	-346.47909	-346.472267	-346.471323	-346.510129	26.406
O          0.50190        0.22640        0.86120
C         -0.23770        0.44760       -0.33300
C         -1.54150       -0.26010       -0.18710
C         -2.77330       -0.39720       -1.13690
C         -3.68950       -0.51110        0.07380
C         -3.07920       -1.76310       -0.53770
C         -1.84660       -1.62700        0.40620
C         -2.45950       -0.37080        1.02060
H          1.34680        0.67710        0.77700
H         -0.41000        1.52460       -0.50230
H          0.30350        0.06340       -1.21470
H         -2.97800       -0.01310       -2.12760
H         -4.72930       -0.23050        0.17530
H         -3.56620       -2.61650       -0.99020
H         -1.16960       -2.34510        0.84780
H         -2.33250        0.03810        2.01330
