16
gdb 9318	6.55012	0.82821	0.74546	1.7145	69.39	-0.2579	-0.059	0.1989	1465.2561	0.126715	-383.70585	-383.696493	-383.695548	-383.740883	31.556
C          0.07860        1.34330        0.00800
O          0.00970       -0.06290        0.00160
C         -1.31640       -0.54300        0.01130
C         -1.25300       -2.06350        0.00300
C         -2.62160       -2.71200        0.01230
O         -3.65700       -2.08040        0.02570
C         -2.62040       -4.16710        0.00430
C         -2.60000       -5.37050       -0.00240
H          1.13590        1.61870       -0.00020
H         -0.41040        1.78060       -0.87680
H         -0.39410        1.77160        0.90600
H         -1.85910       -0.18860        0.90160
H         -1.87520       -0.17960       -0.86540
H         -0.70130       -2.41960       -0.87640
H         -0.68540       -2.42830        0.86860
H         -2.60070       -6.43370       -0.00740
