13
gdb 2406	6.40173	2.17479	2.04446	2.8713	54.	-0.2409	0.0032	0.2441	643.087	0.102194	-344.409533	-344.403693	-344.402749	-344.438937	22.467
O         -0.03520        1.43420       -0.04970
C          0.01810        0.03460        0.00500
C         -0.01310       -0.66770        1.42170
C         -1.49610       -0.15450        1.51500
C         -1.38120       -0.65350        0.02610
C         -0.63280       -1.83800        0.65410
O         -0.59220       -3.02840        0.60280
H          0.84060        1.77620        0.15540
H          0.74460       -0.36810       -0.71040
H          0.75280       -0.66620        2.19430
H         -2.17210       -0.69980        2.17400
H         -1.58900        0.92430        1.61300
H         -2.14050       -0.63560       -0.75150
