16
gdb 14849	2.94699	1.75461	1.22051	2.4062	67.19	-0.2529	0.0214	0.2743	996.6493	0.128115	-383.662453	-383.654012	-383.653068	-383.696058	29.599
C         -0.14770        1.48900       -0.20800
O         -0.18700        0.24230        0.45460
C         -1.30880       -0.51610        0.13460
C         -1.30010       -1.33410       -1.17750
O         -1.53710       -2.55970       -0.45250
C         -1.37130       -1.90540        0.83330
C         -0.18720       -2.33250        1.55810
C          0.77390       -2.71090        2.17180
H          0.74560        2.01030        0.14170
H         -0.08550        1.37370       -1.30040
H         -1.03440        2.09830        0.02630
H         -2.23180        0.06430        0.27620
H         -2.09270       -1.13130       -1.90570
H         -0.32310       -1.33270       -1.67800
H         -2.26170       -2.05390        1.45630
H          1.62970       -3.03770        2.70900
