15
gdb 16388	2.96725	2.50313	1.77379	4.4278	60.51	-0.2255	-0.0235	0.2021	761.0788	0.120838	-399.772653	-399.766275	-399.765331	-399.803093	25.16
O          0.04780        1.38390        0.07960
C          0.00250       -0.01930        0.04070
C         -1.40350       -0.58810       -0.23060
C         -1.14470       -2.04190       -0.69530
C         -0.53450       -1.27820       -1.90750
N         -1.53780       -0.15280       -1.68010
C          0.67490       -0.62260       -1.23760
O          1.81600       -0.56520       -1.59590
H         -0.42370        1.68120       -0.71150
H          0.46170       -0.39190        0.95990
H         -2.19530       -0.30610        0.46210
H         -0.50170       -2.69460       -0.09450
H         -2.06650       -2.56290       -0.96680
H         -0.41160       -1.68950       -2.90710
H         -2.44120       -0.47630       -2.02650
