13
gdb 2172	3.9049	2.99457	1.80086	0.9271	49.82	-0.2592	-0.0409	0.2183	662.1434	0.101658	-381.59931	-381.592966	-381.592022	-381.629578	23.1
O          0.26690        1.28610        0.44920
C         -0.01590       -0.02420        0.05490
C         -1.49320       -0.34210       -0.20430
O         -1.45060       -1.49940       -1.04660
C         -0.39460       -1.33030       -1.97780
C          0.57380       -0.35930       -1.31490
O          1.55830        0.15950       -1.77460
H          1.05840        1.55060       -0.04280
H          0.37860       -0.76440        0.77410
H         -2.06300       -0.60630        0.68720
H         -1.97470        0.51310       -0.70280
H          0.06430       -2.29990       -2.19600
H         -0.74090       -0.89290       -2.92810
