17
gdb 18226	4.32372	1.54626	1.29724	3.5441	68.53	-0.2331	-0.0155	0.2176	947.1662	0.143918	-363.860254	-363.853187	-363.852243	-363.891926	26.759
O          0.08080       -0.09830        0.03690
C          0.12290        1.10530        0.07910
C          1.38730        1.93220        0.04260
C          1.41710        2.89640       -1.18040
C          2.23250        4.13100       -0.72450
C          2.00710        4.19080        0.77360
N          0.58720        4.03240        1.15150
C          1.50660        2.87370        1.23820
H         -0.80490        1.71650        0.15280
H          2.24130        1.24730        0.03180
H          1.83570        2.41240       -2.06520
H          0.39630        3.20280       -1.42290
H          3.30230        3.98990       -0.91800
H          1.91830        5.04250       -1.24190
H          2.64930        4.80200        1.39960
H          0.44060        4.41090        2.08350
H          1.75610        2.46990        2.21380
