10
gdb 3821	9.40373	2.01241	1.65766	6.3841	54.8	-0.2731	-0.0307	0.2425	669.9655	0.070062	-318.391203	-318.385899	-318.384955	-318.420308	19.142
N         -0.00200       -1.13530       -0.00370
C         -0.02450        0.02140        0.00320
C          0.00170        1.44430        0.01090
N         -1.13310        2.15550        0.02960
N         -0.71480        3.42340        0.03130
C          0.63660        3.55540        0.01460
C          1.14720        2.27850        0.00080
H         -1.40510        4.15660        0.04440
H          1.11410        4.52190        0.01390
H          2.18080        1.97720       -0.01430
