14
gdb 9590	4.54817	1.31554	1.2191	2.7906	64.58	-0.2774	-0.0269	0.2506	983.2634	0.105677	-378.725892	-378.717891	-378.716947	-378.758404	28.041
C          0.27240        1.30820        0.22010
C          0.01190       -0.17950        0.05960
C          0.71440       -0.95280       -1.03880
N          1.06400       -1.15250        0.34160
C          2.30820       -0.85070        0.88730
O          3.35700       -1.04560        0.32940
C         -1.32480       -0.60160        0.44320
N         -2.39970       -0.90520        0.73920
H          1.28560        1.55290       -0.10920
H         -0.43870        1.88000       -0.38210
H          0.15640        1.61710        1.26250
H          0.19910       -1.77450       -1.52610
H          1.41520       -0.39740       -1.65720
H          2.22120       -0.47790        1.92390
