12
gdb 20622	3.43419	2.00749	1.27695	4.3533	64.01	-0.2795	-0.0684	0.2111	872.2148	0.084283	-377.531802	-377.524859	-377.523915	-377.563399	24.24
C         -0.00810        1.53800        0.06760
C          0.01470        0.04600        0.02330
C         -0.00070       -0.78200       -1.06430
O          0.02980       -2.08060       -0.68270
N          0.06720       -2.12910        0.69470
C          0.05820       -0.88380        1.10140
C         -0.04200       -0.49540       -2.44870
N         -0.07630       -0.22230       -3.57320
H          0.88330        1.93090        0.56770
H         -0.04490        1.95920       -0.93950
H         -0.88010        1.90250        0.62040
H          0.08300       -0.67670        2.16230
