15
gdb 989	3.65038	3.1105	1.71507	1.0697	62.57	-0.2131	0.0299	0.243	727.9662	0.125199	-308.557865	-308.550869	-308.549925	-308.588663	25.392
C          0.02170        1.52020        0.00420
C          0.00620        0.02360        0.00260
C         -0.02810       -0.80340       -1.07530
O         -0.03250       -2.10860       -0.69310
C          0.00020       -2.11080        0.66650
C          0.02530       -0.84440        1.15890
C          0.06450       -0.42450        2.59500
H          0.91950        1.91450        0.49490
H         -0.00080        1.91720       -1.01440
H         -0.84100        1.93260        0.54100
H         -0.05200       -0.62470       -2.13830
H          0.00130       -3.08170        1.13520
H          0.95790        0.17090        2.81770
H         -0.80260        0.19250        2.85940
H          0.06960       -1.29190        3.26090
