17
gdb 16936	3.55549	2.14103	1.95024	3.8403	66.81	-0.2321	0.0332	0.2653	768.6397	0.146641	-363.917786	-363.911695	-363.910751	-363.947736	25.097
O         -0.00560       -0.01950        0.07570
C          0.00050        1.18560       -0.02590
N         -1.10330        2.01960       -0.08450
C         -0.65760        3.41350        0.04400
C         -0.07560        3.62630        1.46650
C          1.21210        2.74130        1.42460
C          1.19230        2.15390       -0.02370
C          0.62010        3.34510       -0.81720
H         -1.98930        1.69510        0.27420
H         -1.42890        4.11910       -0.26510
H          0.15980        4.68030        1.64200
H         -0.78260        3.31110        2.23800
H          2.11310        3.34390        1.56800
H          1.21580        1.95460        2.18210
H          2.12410        1.69940       -0.35250
H          0.40910        3.11850       -1.86450
H          1.23230        4.24830       -0.74650
