18
gdb 4038	3.37028	1.48808	1.2536	1.2266	71.48	-0.2363	0.0028	0.2392	1030.5544	0.151866	-381.059702	-381.050648	-381.049703	-381.093421	33.05
C         -0.26480        1.44380        0.00900
C         -0.01220       -0.04160        0.04250
N          0.14770       -0.72060        1.11530
O          0.05350        0.07690        2.26640
C          0.04380       -0.79330       -1.25460
C          1.00500       -0.24250       -2.29020
C         -0.28900       -2.23680       -1.25570
N         -1.25160       -1.26380       -1.81500
H          0.67830        2.00000        0.06630
H         -0.77080        1.73260       -0.91490
H         -0.86710        1.74530        0.86780
H          0.17000       -0.57130        2.96900
H          2.03980       -0.31890       -1.93930
H          0.90720       -0.80670       -3.22060
H          0.79840        0.80870       -2.51500
H          0.17730       -2.88440       -1.99300
H         -0.51330       -2.70570       -0.30460
H         -1.99090       -1.10870       -1.13170
