13
gdb 19816	4.42003	2.13262	1.90597	3.3543	56.53	-0.261	-0.0167	0.2443	703.9213	0.096736	-398.551188	-398.545486	-398.544542	-398.580967	22.256
O         -0.04510        0.02330       -0.07160
C          0.02150        1.20550       -0.00270
O         -1.03080        2.10230        0.12860
C         -0.11950        3.24630        0.11160
C          0.41670        3.68520        1.48070
C          0.64060        2.54590        2.38700
N          1.64820        2.78610        1.33470
C          1.08290        2.31880       -0.00800
H         -0.41810        4.00120       -0.61070
H          0.51380        4.71980        1.79030
H          1.03000        2.78110        3.37230
H         -0.00230        1.67210        2.35240
H          1.83320        2.32980       -0.79420
