16
gdb 5074	3.2493	1.98654	1.24525	1.1408	67.68	-0.1629	0.0596	0.2225	937.8787	0.130251	-379.950642	-379.941762	-379.940818	-379.983576	32.045
C          0.08600        1.52980        0.00430
C          0.04170        0.03320        0.00140
C          0.01070       -0.80770       -1.08900
O         -0.01660       -0.57230       -2.42830
N          0.02470       -2.10060       -0.67310
C          0.04350       -2.13040        0.72050
C          0.06240       -0.82780        1.15250
N          0.18530       -0.35320        2.47710
H          0.82820        1.89860        0.72160
H          0.36880        1.93220       -0.97670
H         -0.87510        1.99290        0.26890
H         -0.06140        0.37920       -2.56290
H         -0.01660       -2.89330       -1.28720
H          0.06060       -3.06280        1.25880
H          0.06960       -1.09750        3.15430
H         -0.49550        0.36890        2.68580
