13
gdb 16802	3.80564	2.00964	1.4168	5.7875	62.64	-0.2259	-0.04	0.1859	823.0068	0.096343	-398.604144	-398.597551	-398.596607	-398.634672	25.404
N          0.07570        1.34710        0.09510
C         -0.03730       -0.00310        0.03760
C         -1.15370       -0.77720       -0.02580
C         -0.79740       -2.19630        0.00280
O         -1.52320       -3.16650        0.02540
C          0.73960       -2.25000        0.02450
O          1.34730       -1.64260       -1.13440
C          1.20050       -0.86490        0.06290
H          0.96140        1.77160       -0.12600
H         -0.73620        1.91560       -0.08500
H         -2.17230       -0.42870       -0.13220
H          1.26680       -3.09250        0.46010
H          2.11560       -0.52900        0.54250
