15
gdb 2440	4.28774	3.50844	2.72222	1.692	60.22	-0.2333	0.0066	0.2399	571.8519	0.127757	-308.500974	-308.49576	-308.494815	-308.529551	21.462
C         -0.07280        1.55430        0.06100
C          1.46650        1.42780        0.00480
C          2.07860        1.14120        1.38590
C          1.30130        0.01820        2.04390
C          0.29510       -0.54150        1.37220
C          0.03240        0.01170       -0.01500
O          1.31590        0.16230       -0.70200
H         -0.54230        1.99850        0.94060
H         -0.46870        1.98780       -0.85880
H          2.03960        2.15910       -0.57160
H          3.13460        0.86220        1.27380
H          2.06150        2.04690        2.00760
H          1.59160       -0.30770        3.03850
H         -0.31610       -1.34240        1.77420
H         -0.68790       -0.55900       -0.60400
