17
gdb 12543	3.58609	1.89915	1.3158	1.6697	65.83	-0.2442	0.0151	0.2594	924.8657	0.143333	-401.003957	-400.996467	-400.995523	-401.035796	27.768
C          0.05840        1.54470        0.10320
C          0.01540        0.02450        0.01850
C          0.49560       -0.48600       -1.34380
N          0.48780       -1.91300       -1.60020
C          0.81370       -2.81210       -0.78080
O          1.16080       -2.77400        0.53760
C          0.59020       -1.79660        1.40490
O          0.84180       -0.48070        1.06970
H          1.08030        1.90710       -0.04400
H         -0.58270        1.99250       -0.66130
H         -0.28480        1.87940        1.08510
H         -1.01510       -0.32990        0.18700
H         -0.11410       -0.00830       -2.11980
H          1.52480       -0.12760       -1.49210
H          0.89760       -3.84110       -1.13220
H         -0.49490       -1.98430        1.45690
H          1.05990       -1.98610        2.37130
