14
gdb 5022	3.35093	2.24755	1.35641	3.3831	66.15	-0.2357	-0.0342	0.2016	854.2167	0.108364	-382.593438	-382.586627	-382.585683	-382.624406	25.413
C         -0.02900        1.50700        0.00690
C         -0.00640        0.00840       -0.01140
C         -0.03990       -0.70000       -1.15470
O         -0.02140       -2.05570       -1.22250
C          0.03460       -2.74400       -0.06250
C          0.07270       -2.15950        1.14570
C          0.05520       -0.70260        1.28090
O          0.08790       -0.11550        2.35460
H          0.86150        1.89370        0.51260
H         -0.07610        1.92650       -1.00140
H         -0.88760        1.86630        0.58310
H         -0.08550       -0.26720       -2.14690
H          0.04430       -3.81190       -0.24210
H          0.11720       -2.76570        2.04210
