17
gdb 17021	4.08484	1.63935	1.36253	1.7068	75.75	-0.2296	0.0267	0.2562	943.4314	0.141916	-326.608684	-326.601284	-326.600339	-326.640017	28.883
C         -0.06780        1.66500        0.05110
C          0.02590        0.15550       -0.04440
C          0.80320       -0.59730       -1.15680
C          2.07480       -0.16340       -0.40450
N          1.14680       -0.56960        0.75780
C          0.81550       -1.78920       -0.15670
C         -0.38020       -2.55110        0.13620
C         -1.34570       -3.23270        0.35950
H          0.83540        2.19580       -0.25690
H         -0.89110        2.01790       -0.57930
H         -0.29380        1.95440        1.08270
H         -0.94760       -0.27910        0.19690
H          0.60990       -0.63430       -2.23480
H          2.96170       -0.79720       -0.49040
H          2.35490        0.88840       -0.40050
H          1.67680       -2.45900       -0.23830
H         -2.20240       -3.82620        0.56380
