18
gdb 20295	5.15357	1.52588	1.4551	1.6084	71.92	-0.2621	0.0959	0.358	920.3955	0.155353	-347.722087	-347.715401	-347.714457	-347.753406	26.159
C          1.36630        0.48320       -0.10820
O          0.40280       -0.11220       -0.97750
C         -0.05220        0.41340        0.27350
C         -0.54290       -0.50930        1.35870
C         -1.94110       -1.21030        1.29870
C         -1.34860       -2.20500        0.25670
C         -0.25490       -2.04460        1.35740
C         -1.40490       -2.16950        2.40030
H          2.07510       -0.20990        0.34320
H          1.79190        1.42390       -0.45490
H         -0.63360        1.33270        0.16840
H         -0.35090       -0.01780        2.32220
H         -2.91640       -0.72090        1.27000
H         -1.83370       -3.18420        0.20990
H         -1.11230       -1.82350       -0.73370
H          0.72170       -2.52970        1.39590
H         -1.22700       -1.73970        3.39050
H         -1.88950       -3.14690        2.46700
