16
gdb 20572	4.54501	1.54669	1.22672	3.9067	66.2	-0.2419	0.0154	0.2573	969.0327	0.131755	-379.944084	-379.936311	-379.935367	-379.976743	28.497
C          0.11760        1.39290       -0.41530
C         -0.01580        0.03700        0.28480
O          0.30700        0.19170        1.65400
C         -1.39170       -0.55900        0.11400
N         -2.08770       -0.89410        1.19660
N         -3.24290       -1.40190        0.72590
C         -3.30080       -1.39890       -0.62680
C         -2.11250       -0.85840       -1.06700
H          1.12040        1.79350       -0.24410
H         -0.03920        1.29900       -1.49480
H         -0.61340        2.09980       -0.01260
H          0.70890       -0.65630       -0.17620
H         -0.40070       -0.23030        2.15840
H         -3.93850       -1.72400        1.37660
H         -4.16290       -1.77170       -1.15730
H         -1.80960       -0.70410       -2.08960
