15
gdb 20582	3.3029	2.01283	1.27036	2.1771	64.09	-0.2407	0.0062	0.2469	923.7612	0.117841	-399.814702	-399.806563	-399.805619	-399.847798	28.672
C          0.10060        1.49450        0.06610
C         -0.06590        0.02100       -0.04770
C         -1.14980       -0.80360       -0.00350
C         -2.60110       -0.50090        0.18190
C         -0.55690       -2.08910       -0.18330
O         -1.24840       -3.24140       -0.21130
N          0.74350       -2.05180       -0.32170
O          1.06470       -0.69200       -0.23480
H          0.74930        1.75080        0.91020
H          0.55910        1.90740       -0.83850
H         -0.86660        1.97850        0.21470
H         -3.19320       -0.84430       -0.67340
H         -3.00320       -1.00060        1.06990
H         -2.77150        0.57270        0.29670
H         -0.61530       -3.95940       -0.34480
