20
gdb 8108	2.87824	1.96902	1.47919	1.438	75.53	-0.2265	0.0877	0.3142	961.9285	0.175608	-348.977321	-348.968748	-348.967804	-349.00958	32.713
C         -0.20370        1.25710       -0.78260
C          0.17050       -0.20330       -0.64030
C          1.57260       -0.80700       -0.58510
C          2.51960       -0.00890        0.30690
C          3.13730        1.31180       -0.11030
O          1.49900        0.09070        1.34590
C          0.65630       -0.83200        0.62920
C          0.00270       -1.91230        1.42880
H          0.09250        1.66380       -1.75560
H         -1.28890        1.37730       -0.69140
H          0.26220        1.85470        0.00300
H         -0.48440       -0.88060       -1.18800
H          1.87650       -1.61070       -1.24410
H          3.31350       -0.67360        0.67770
H          3.58810        1.80410        0.75800
H          3.93230        1.12870       -0.84160
H          2.41070        1.99210       -0.55590
H         -0.70780       -1.48260        2.14450
H         -0.54880       -2.59390        0.77480
H          0.74210       -2.48890        1.99370
