13
gdb 5462	3.5578	1.98734	1.27697	2.2	72.5	-0.1919	-0.0075	0.1844	885.2634	0.095701	-361.45618	-361.448981	-361.448037	-361.487304	27.397
N          0.04580        1.41580        0.16670
C          0.03840        0.03310        0.04600
C         -1.06840       -0.78850        0.01070
O         -0.65860       -2.10880       -0.02990
C          0.68700       -2.09870       -0.03090
C          1.17880       -0.83090        0.01550
C         -2.43340       -0.48510        0.01250
C         -3.59950       -0.17190        0.00520
H          0.80570        1.87080       -0.31920
H         -0.84180        1.84290       -0.06380
H          1.16320       -3.06540       -0.06580
H          2.21750       -0.53980        0.03570
H         -4.62780        0.09120        0.01390
