10
gdb 21427	4.11621	2.1574	1.4155	2.8532	53.79	-0.2932	-0.1042	0.189	766.2826	0.061258	-446.771668	-446.765412	-446.764468	-446.803669	21.836
N         -0.08710        1.28640       -0.27920
C         -0.00710        0.08720        0.08950
O         -1.18960       -0.54850        0.43240
C         -1.20600       -1.84030        0.84120
O         -2.20970       -2.40930        1.14160
N          0.05450       -2.42000        0.87240
N          1.22870       -1.82430        0.54410
N          1.21480       -0.62940        0.16920
H          0.84810        1.62820       -0.49910
H          0.13110       -3.38190        1.16670
