12
gdb 8626	2.23879	2.1186	1.46962	1.5266	54.83	-0.2673	-0.082	0.1853	859.8544	0.079057	-455.623782	-455.615655	-455.61471	-455.656584	27.816
O         -0.00840        1.51770       -0.07840
C         -0.03550        0.13750       -0.13540
C          0.69840       -0.42280       -1.39670
O          1.43950        0.24590       -2.05140
C          0.64780       -0.47950        1.09140
O          1.21440        0.22820        1.88260
C         -1.47050       -0.39700       -0.18140
O         -1.72000       -1.56790       -0.30120
H          0.57710        1.75170        0.66020
H          0.44930       -1.47870       -1.62280
H          0.57670       -1.57630        1.19230
H         -2.23570        0.40060       -0.10160
