15
gdb 16827	3.62814	2.10573	1.54747	5.1078	60.63	-0.2748	0.015	0.2898	820.9746	0.119863	-399.820622	-399.813858	-399.812914	-399.851584	25.475
C         -0.11530        1.57570       -0.03280
C          0.08050        0.06950        0.02320
O          0.91790       -0.36470       -1.06410
C          1.86630       -1.25440       -0.64140
O          2.62010       -1.80120       -1.38280
N          1.81320       -1.42550        0.78410
C          2.20890       -0.15990        1.46490
C          0.78270       -0.48710        1.25560
H          0.83750        2.10130        0.07110
H         -0.57050        1.86610       -0.98300
H         -0.77850        1.89430        0.77760
H         -0.88820       -0.43350       -0.08950
H          2.66060       -0.30710        2.43990
H          2.66830        0.61270        0.85480
H          0.17020       -0.82070        2.08640
