19
gdb 1298	5.02395	1.27143	1.24031	2.2405	64.82	-0.2572	0.0792	0.3364	1070.8534	0.169559	-348.053064	-348.044051	-348.043107	-348.086845	31.636
C         -0.11500        1.50500       -0.13450
C         -0.05430       -0.01160       -0.07180
O         -1.37320       -0.51410        0.02180
C         -1.44930       -1.92680        0.07390
C         -2.93250       -2.29750        0.03160
C         -3.68580       -1.84020        1.28410
O         -3.51890       -1.77100       -1.15070
H          0.89330        1.92350       -0.20430
H         -0.68660        1.83170       -1.00810
H         -0.59700        1.90730        0.76100
H          0.44190       -0.41940       -0.96800
H          0.53520       -0.33990        0.80020
H         -0.93380       -2.36620       -0.79450
H         -0.96970       -2.31180        0.98870
H         -3.00460       -3.38830       -0.05770
H         -3.56520       -0.76270        1.42900
H         -4.75050       -2.06250        1.17750
H         -3.31120       -2.34960        2.17890
H         -3.22160       -0.85380       -1.19910
