15
gdb 5759	6.1502	1.45605	1.29805	2.2922	68.09	-0.2243	0.0057	0.23	933.1164	0.120937	-362.682535	-362.675961	-362.675017	-362.713812	24.556
C         -0.12910        1.46180       -0.05780
C          1.26980        0.95620        0.14650
C          0.12210       -0.03110        0.04460
C         -0.32360       -0.79150        1.21330
C         -0.80670       -2.04570        1.40740
N         -1.07400       -2.24110        2.76000
C         -0.74790       -1.12050        3.30770
O         -0.28180       -0.18300        2.44320
H         -0.62230        1.93600        0.78270
H         -0.40390        1.85690       -1.02920
H          1.96630        1.00020       -0.68310
H          1.71730        1.09030        1.12430
H          0.05050       -0.60060       -0.87550
H         -0.98060       -2.81880        0.67640
H         -0.79640       -0.83720        4.34720
