13
gdb 9032	4.77627	0.88377	0.76814	2.1718	69.59	-0.2812	-0.0781	0.2031	1377.0642	0.093182	-361.449479	-361.440719	-361.439775	-361.484438	28.618
C          0.22480        1.41540        0.09230
C         -0.07930       -0.10070       -0.02760
C         -1.53150       -0.34670       -0.00390
N         -2.67250       -0.52040        0.03210
C          0.53610       -0.68440       -1.21860
C          1.08350       -1.13910       -2.19230
C          1.70310       -1.70060       -3.37030
O          2.88130       -1.61190       -3.62260
H          1.30550        1.56620        0.12080
H         -0.18610        1.95490       -0.76280
H         -0.22020        1.81030        1.00800
H          0.34410       -0.60530        0.85190
H          0.99980       -2.23160       -4.04170
