14
gdb 5025	3.47783	2.25677	1.37047	5.7604	69.26	-0.1885	-0.0073	0.1812	837.3109	0.110468	-378.782073	-378.775416	-378.774471	-378.812486	26.371
N          0.01000        1.39130        0.14390
C         -0.05880        0.01620        0.05260
C         -1.20720       -0.71600        0.03110
N         -1.16110       -2.09490       -0.00760
C          0.01660       -2.76610       -0.02210
C          1.20400       -2.09820       -0.00830
C          1.26020       -0.65640        0.01910
O          2.29430        0.01970        0.00500
H          0.95260        1.70510       -0.06410
H         -0.72210        1.92720       -0.29480
H         -2.19730       -0.27800        0.04840
H         -2.02570       -2.60770       -0.02050
H         -0.05560       -3.84670       -0.04870
H          2.13770       -2.64550       -0.03240
