14
gdb 2516	3.7676	2.09138	1.47347	1.3827	60.49	-0.2294	-0.035	0.1943	820.799	0.110691	-324.529724	-324.521647	-324.520703	-324.562126	27.834
C          0.03720        1.51370        0.06520
N         -0.12850        0.06570       -0.06280
C          0.62070       -0.51100       -1.16410
C          2.14970       -0.59190       -0.93110
O          2.66520       -0.32600        0.12060
C          0.18430       -1.87180       -1.48840
C         -0.10150       -3.01300       -1.73410
H          1.07860        1.84680        0.18300
H         -0.38570        2.00430       -0.81900
H         -0.53170        1.85550        0.93390
H          0.16970       -0.38720        0.79560
H          0.47120        0.12150       -2.05300
H          2.73710       -0.94340       -1.80740
H         -0.38670       -4.01150       -1.95770
