20
gdb 14801	6.98872	0.64622	0.61308	1.7712	69.85	-0.2587	0.0758	0.3345	1825.5896	0.174774	-423.246864	-423.236712	-423.235768	-423.283364	34.005
C          0.76730        1.60180       -0.28880
O          0.86070        0.20340       -0.16080
C         -0.25410       -0.47190       -0.69190
C         -0.02800       -1.96210       -0.48740
O         -1.14410       -2.64430       -1.01620
C         -1.06290       -4.05350       -0.90050
C         -2.25890       -4.62280       -1.64690
O         -2.24570       -4.24100       -3.00780
H          0.70140        1.91190       -1.34370
H         -0.11120        2.00260        0.24120
H          1.67100        2.03160        0.14990
H         -1.18550       -0.16480       -0.18850
H         -0.37610       -0.25840       -1.76690
H          0.90090       -2.27080       -0.99170
H          0.09150       -2.17400        0.58650
H         -0.12760       -4.41840       -1.35380
H         -1.07650       -4.36220        0.15760
H         -2.22860       -5.71690       -1.61450
H         -3.18320       -4.29500       -1.14470
H         -2.09730       -3.28800       -3.00750
