14
gdb 11870	5.06941	1.69062	1.41017	4.8637	66.48	-0.2569	-0.0439	0.213	859.2913	0.107823	-382.57572	-382.569348	-382.568404	-382.606171	24.747
O         -0.09470        0.01660        0.00410
C          0.00750        1.21010        0.00960
O         -1.09710        2.04420        0.02950
C         -0.66410        3.38450        0.03120
C         -1.51640        4.39120       -0.70490
C         -1.49570        4.38260        0.80190
C          0.80520        3.35370        0.01090
C          1.20570        2.07850       -0.00190
H         -1.01330        5.19240       -1.23450
H         -2.39260        3.98880       -1.19950
H         -2.35800        3.97450        1.31570
H         -0.97820        5.17780        1.32660
H          1.41530        4.24740        0.00760
H          2.20800        1.67890       -0.01800
