13
gdb 993	3.9698	3.17387	1.77495	1.5036	55.75	-0.1911	0.0401	0.2312	667.5396	0.103842	-340.645995	-340.639435	-340.63849	-340.676096	24.742
N          0.08370        1.42370        0.10400
C          0.00920        0.02210        0.01500
C         -1.06160       -0.81860        0.02630
O         -0.64820       -2.11860       -0.00710
C          0.71580       -2.10160       -0.03930
C          1.17650       -0.82060       -0.02620
N          2.48350       -0.30830       -0.11370
H          0.72090        1.80030       -0.59070
H         -0.81870        1.86860       -0.00840
H         -2.12600       -0.65860        0.06330
H          1.20300       -3.06130       -0.07710
H          3.18970       -1.02550       -0.00510
H          2.64120        0.41160        0.58440
