15
gdb 2021	7.33597	1.77593	1.64799	2.7568	61.69	-0.2414	-0.0207	0.2208	769.4955	0.124057	-308.511094	-308.504529	-308.503585	-308.542113	24.802
O         -0.00870        0.14280       -0.61210
C         -0.01600        1.22770       -0.10980
C         -1.13580        2.18080        0.35370
C         -0.02910        3.16280        0.78590
C         -0.05080        4.65480        0.64280
C         -0.02320        4.01940        2.01600
C          1.09060        2.21030        0.32260
H         -1.79130        2.51580       -0.45740
H         -1.75880        1.76950        1.15520
H          0.84950        5.14820        0.29030
H         -0.97330        5.12420        0.31580
H         -0.92710        4.06000        2.61570
H          0.89570        4.08400        2.59020
H          1.74650        1.81590        1.10620
H          1.71410        2.56210       -0.50640
