18
gdb 7859	4.60626	1.06017	0.95042	3.4362	69.01	-0.248	-0.0138	0.2342	1262.3397	0.150419	-384.945985	-384.936734	-384.93579	-384.981156	32.136
C         -0.08750        1.51360       -0.12730
C          0.05490        0.01960        0.02230
O          1.37840       -0.52760        0.00140
C          0.60850       -0.65920        1.20410
C          1.13030        0.06020        2.42520
C          1.94010       -0.85080        3.35280
C          2.89940       -0.15120        4.29570
O          1.80350       -2.05140        3.34540
H          0.62080        2.05830        0.50030
H          0.08800        1.80670       -1.16760
H         -1.10280        1.82700        0.13980
H         -0.65770       -0.55570       -0.57330
H          0.28200       -1.67750        1.41020
H          1.72830        0.93030        2.14110
H          0.29280        0.44230        3.02910
H          2.40490        0.67890        4.81220
H          3.29840       -0.86140        5.02070
H          3.72540        0.28170        3.71860
