16
gdb 14574	14.1043	0.63186	0.61259	3.5719	72.45	-0.2551	0.0177	0.2727	1697.8147	0.129195	-342.748777	-342.739721	-342.738777	-342.783319	31.092
C         -0.03530       -1.20980       -0.01570
C         -0.03290       -0.00840        0.00530
C          0.00540        1.44760        0.03120
C          1.44040        1.99640       -0.03330
N          1.41970        3.45460        0.01470
C          2.75750        4.03430        0.01610
C          2.69730        5.49860        0.01430
N          2.65120        6.65230       -0.01120
H         -0.05270       -2.27140       -0.03270
H         -0.57390        1.84450       -0.81380
H         -0.47560        1.82800        0.93960
H          2.00190        1.63330        0.83530
H          1.94680        1.59500       -0.92850
H          0.89700        3.82090       -0.77540
H          3.28070        3.71150        0.92490
H          3.38930        3.71970       -0.83510
