15
gdb 12656	3.30139	2.05835	1.29863	5.7673	63.91	-0.2349	-0.0611	0.1737	901.6417	0.119157	-399.855876	-399.8481	-399.847156	-399.888994	27.016
C         -0.05220        1.42260        0.00890
N         -0.00100       -0.02040        0.00070
C         -1.21500       -0.82550        0.00410
C         -0.72940       -2.28790       -0.00700
C          0.79170       -2.20240       -0.01680
O          1.57390       -3.11110       -0.02670
C          1.17720       -0.71100       -0.01060
O          2.29720       -0.24940       -0.01560
H          0.97550        1.78960        0.00320
H         -0.58100        1.80170       -0.87440
H         -0.56770        1.79220        0.90390
H         -1.81850       -0.59610        0.89170
H         -1.82990       -0.58650       -0.87300
H         -1.05910       -2.84870        0.87170
H         -1.07100       -2.83930       -0.88700
