16
gdb 12332	3.30225	2.22156	1.35115	3.0371	68.47	-0.2036	0.0137	0.2173	886.9401	0.132398	-379.974037	-379.966129	-379.965185	-380.007694	27.735
C         -0.00720        1.49990       -0.02270
N          0.01220        0.04700       -0.00130
C          0.09310       -0.66770       -1.19330
C          0.09580       -1.99850       -1.26140
C         -0.00100       -2.83600       -0.02250
N          0.04340       -1.98090        1.15680
C         -0.01030       -0.61360        1.22630
O         -0.05860       -0.02180        2.29150
H          0.90450        1.89920       -0.48240
H         -0.87400        1.87180       -0.58110
H         -0.06870        1.84310        1.00850
H          0.15560       -0.04760       -2.08060
H          0.15880       -2.49680       -2.21950
H         -0.92810       -3.43480       -0.03060
H          0.82590       -3.56230        0.01850
H         -0.00280       -2.41070        2.06640
