19
gdb 7139	5.67698	0.7973	0.76127	2.2726	69.89	-0.2431	0.0345	0.2777	1535.5589	0.16387	-402.232298	-402.222192	-402.221248	-402.269576	34.169
C         -0.10150        1.21380       -0.61040
C         -0.09960        0.17910        0.51690
N         -1.34650       -0.56400        0.60410
C         -1.44490       -1.89280        0.30750
O         -0.49250       -2.56490       -0.05380
C         -2.83790       -2.48580        0.49040
C         -3.06680       -3.68190       -0.42460
O         -4.34820       -4.21080       -0.11380
H          0.84960        1.75510       -0.63320
H         -0.24560        0.72890       -1.58010
H         -0.90130        1.95060       -0.47580
H          0.68140       -0.56640        0.35430
H          0.09940        0.66830        1.47870
H         -2.18330       -0.06820        0.86530
H         -2.93930       -2.81890        1.53110
H         -3.61720       -1.73370        0.32420
H         -3.00840       -3.36250       -1.47670
H         -2.26520       -4.41260       -0.26140
H         -4.47840       -5.00220       -0.64380
