14
gdb 3532	7.55671	2.3932	2.32995	1.4784	56.73	-0.2242	0.0606	0.2848	609.1144	0.112986	-324.444698	-324.439154	-324.43821	-324.47366	21.844
C          0.02790        1.53770       -0.16390
N          0.03120        0.08230       -0.04480
C         -1.11680       -0.50100        0.70910
C         -0.25350       -1.69990        1.19440
O         -0.62620       -1.57260        2.59450
C         -0.54010       -0.19290        2.14390
C          0.68240       -0.45810        1.18420
H          1.01900        1.87510       -0.48400
H         -0.69000        1.83430       -0.93530
H         -0.23080        2.06920        0.76800
H         -2.14900       -0.48910        0.35670
H         -0.11530       -2.68820        0.76040
H         -0.75010        0.59340        2.86830
H          1.75240       -0.39610        1.38680
