20
gdb 6471	3.13338	1.58705	1.32129	2.5095	70.93	-0.2453	0.0751	0.3205	1030.0835	0.175587	-386.135248	-386.126348	-386.125404	-386.168556	33.384
C          0.62950        1.44830        0.18000
C          0.04970        0.05470        0.03930
C          0.36860       -0.74840       -1.24090
C          1.04560       -1.76240       -0.29010
C          0.38750       -3.12710       -0.16600
C          2.57020       -1.85930       -0.38770
O          3.11160       -2.32280        0.83240
O          0.73170       -0.92350        0.86890
H          1.68940        1.46460       -0.09260
H          0.09350        2.15100       -0.46770
H          0.53550        1.79800        1.21310
H         -1.01970        0.07050        0.28830
H         -0.49570       -1.12880       -1.78760
H          1.04480       -0.24850       -1.93900
H          0.51120       -3.69650       -1.09400
H          0.85130       -3.69060        0.64790
H         -0.68160       -3.02420        0.03880
H          2.86660       -2.57060       -1.16730
H          2.98110       -0.87320       -0.65790
H          2.72270       -1.75580        1.51170
