20
gdb 14738	10.51924	0.52422	0.50717	1.4761	81.17	-0.2407	0.0615	0.3022	2149.8134	0.174403	-348.982536	-348.971821	-348.970876	-349.020695	35.507
C          0.03170        1.50250        0.00970
C          0.02530        0.04610        0.00180
C          0.03210       -1.15810       -0.00460
C          0.00390       -2.61690       -0.01220
C         -1.42490       -3.19740       -0.00150
C         -1.43290       -4.72760       -0.00960
C         -2.83840       -5.31340        0.00080
O         -2.72280       -6.72880       -0.00790
H          1.05420        1.89660        0.00180
H         -0.48470        1.90990       -0.86670
H         -0.46730        1.90020        0.90060
H          0.53840       -2.99240       -0.89540
H          0.55540       -3.00180        0.85630
H         -1.95240       -2.82100        0.88330
H         -1.96930       -2.81160       -0.87180
H         -0.90730       -5.10510       -0.89570
H         -0.89050       -5.11440        0.86210
H         -3.38070       -4.96320        0.89470
H         -3.39770       -4.95380       -0.87880
H         -3.60860       -7.10270       -0.00130
