17
gdb 17584	2.727	2.45027	1.86445	1.6927	67.96	-0.2249	0.0844	0.3093	800.2819	0.142316	-363.798474	-363.791185	-363.790241	-363.829447	28.823
C         -0.02990        1.51850        0.12240
C         -0.03270        0.02190        0.01340
C          1.18050       -0.79920       -0.39530
C          0.61680       -1.01400        0.97440
O          1.39410       -0.78750        2.09100
C         -0.63910       -1.84250        0.92400
N         -1.75350       -0.96520        1.39060
C         -1.25980       -0.85960       -0.00930
H          0.92090        1.87480        0.53310
H         -0.17100        2.00150       -0.85180
H         -0.83170        1.85490        0.78770
H          1.11470       -1.56870       -1.16060
H          2.11380       -0.24380       -0.40200
H          0.79620       -0.51550        2.79820
H         -0.73930       -2.92210        0.93960
H         -2.60500       -1.52970        1.36830
H         -1.91580       -1.07760       -0.84470
