12
gdb 21065	5.85347	1.6947	1.32523	5.3236	61.89	-0.2392	-0.0802	0.159	851.6899	0.083936	-410.797815	-410.790998	-410.790053	-410.829531	23.8
C         -0.02640        1.46580        0.00980
N         -0.01340        0.00800        0.00110
N         -1.20000       -0.61210        0.00530
C         -1.15470       -1.90700       -0.00230
C          0.09680       -2.65960       -0.01460
O          0.16550       -3.86830       -0.02180
N          1.27520       -1.85610       -0.01760
N          1.18770       -0.58780       -0.00990
H          1.00920        1.80040        0.00330
H         -0.55120        1.83460       -0.87440
H         -0.53640        1.82430        0.90690
H         -2.10240       -2.43700        0.00090
