18
gdb 277	6.99745	1.88283	1.60043	0.9451	61.01	-0.2508	0.0876	0.3384	817.8428	0.16427	-272.83269	-272.824541	-272.823597	-272.864643	28.268
C         -0.01320        1.38960       -0.00500
O          0.00850       -0.01570       -0.01920
C         -1.28160       -0.58820        0.01440
C         -1.15970       -2.11090       -0.02870
C         -2.53830       -2.75900        0.14610
C         -0.47380       -2.57650       -1.31890
H          1.02330        1.73560       -0.03130
H         -0.54700        1.80090       -0.87700
H         -0.49520        1.78300        0.90470
H         -1.81230       -0.27350        0.93010
H         -1.88090       -0.23200       -0.84380
H         -0.52750       -2.40030        0.82140
H         -3.21110       -2.48260       -0.67470
H         -2.45760       -3.85040        0.15110
H         -3.01320       -2.45390        1.08480
H         -1.08830       -2.33440       -2.19490
H          0.49490       -2.08670       -1.44080
H         -0.31720       -3.66010       -1.31260
