13
gdb 4708	6.70868	1.32937	1.11724	5.1554	66.76	-0.2544	-0.0732	0.1812	1000.9304	0.095245	-398.646232	-398.639115	-398.638171	-398.677881	24.834
C          0.15050        1.45680        0.06410
C         -0.05610       -0.00870       -0.03060
C         -1.13850       -0.81340       -0.25070
N         -0.74980       -2.13150       -0.23640
C          0.53120       -2.09170       -0.01260
O          1.02090       -0.82180        0.12340
C          1.51050       -3.17960        0.11350
O          1.24280       -4.35150        0.01980
H          0.85530        1.80890       -0.69680
H         -0.80010        1.97410       -0.08050
H          0.55270        1.73930        1.04290
H         -2.16390       -0.52120       -0.41670
H          2.54030       -2.81250        0.30680
