18
gdb 8038	3.40336	2.03175	1.57971	1.3422	67.59	-0.2414	0.0627	0.3042	876.5899	0.152706	-384.909667	-384.901893	-384.900949	-384.941409	29.449
C          0.32210        1.55000       -0.03310
C          0.03800        0.07050        0.09270
O          0.79920       -0.75250       -0.84400
C          1.28140       -1.61540        0.21280
C          1.06520       -3.07720       -0.06440
C          2.61230       -1.09850        0.79340
O          1.90870       -0.22850        1.71870
C          0.62630       -0.71150        1.28360
H          1.36130        1.76360        0.22620
H          0.13260        1.88270       -1.05810
H         -0.32960        2.12040        0.63760
H         -1.03490       -0.13670       -0.03320
H          1.64410       -3.38090       -0.94390
H          1.38440       -3.69040        0.78380
H          0.01080       -3.28160       -0.27050
H          3.21190       -1.84300        1.33310
H          3.24070       -0.54770        0.08590
H         -0.02100       -1.01000        2.11080
