12
gdb 9025	4.79688	0.92677	0.80113	4.3702	76.69	-0.2621	-0.0425	0.2196	1321.5223	0.082526	-340.323028	-340.314673	-340.313729	-340.356209	29.245
N         -0.04400        1.49160        0.07950
C         -0.02050        0.02520       -0.02540
C         -1.39100       -0.49580        0.15610
N         -2.46070       -0.90760        0.29320
C          0.56560       -0.50440       -1.26440
C          1.08760       -0.88320       -2.28800
C          1.66650       -1.31250       -3.44150
C          2.18260       -1.69240       -4.46440
H          0.91030        1.83380        0.00880
H         -0.55000        1.87610       -0.71400
H          0.56910       -0.34690        0.82410
H          2.63230       -2.03020       -5.36540
