10
gdb 217	6.30165	6.09672	3.09875	2.2031	48.47	-0.2531	-0.0415	0.2116	408.2875	0.076933	-264.261826	-264.257646	-264.256702	-264.289179	15.138
C         -0.02980        1.38930        0.01040
C          1.19490        2.04660        0.00190
N          2.35820        1.39060       -0.01310
C          2.27240        0.05900       -0.01960
N          1.16160       -0.68030       -0.01270
C          0.01230       -0.00000        0.00240
H         -0.96800        1.93140        0.02260
H          1.25040        3.13310        0.00730
H          3.21410       -0.48510       -0.03190
H         -0.90130       -0.59060        0.00810
