14
gdb 3221	3.46848	3.3462	2.29064	3.5606	52.37	-0.2355	0.0622	0.2977	613.3968	0.114207	-361.656187	-361.64979	-361.648845	-361.686542	24.217
O          0.10120        1.37440        0.21110
C          0.05300       -0.01220        0.05900
C         -1.33180       -0.66190        0.01420
N         -1.96940       -0.05010       -1.18380
C         -1.08150       -1.23510       -1.33680
C          0.32280       -0.63030       -1.39710
O          0.59470        0.24480       -2.45010
H         -0.61140        1.72960       -0.33530
H          0.71700       -0.44990        0.80770
H         -1.93890       -1.04150        0.82670
H         -2.93500       -0.36830       -1.22760
H         -1.45560       -2.14850       -1.78250
H          1.12090       -1.37560       -1.37280
H         -0.19790        0.78490       -2.56210
