16
gdb 9084	5.28222	0.83988	0.75778	3.0942	68.6	-0.2511	-0.0221	0.2291	1418.5151	0.126746	-383.70834	-383.699071	-383.698126	-383.743156	32.099
O         -0.00680        1.42860       -0.07750
C          0.02490        0.00790        0.03430
C          0.63200       -0.65060       -1.22290
C         -0.12390       -0.25160       -2.49880
C          0.60920       -0.68130       -3.74690
O          0.14350       -1.35510       -4.62880
C          0.72900       -0.42410        1.24350
C          1.35090       -0.75770        2.21660
H          0.87870        1.75510        0.11870
H         -1.02900       -0.28890        0.10790
H          1.68550       -0.35020       -1.29460
H          0.62250       -1.73810       -1.09190
H         -1.13360       -0.67200       -2.52100
H         -0.20610        0.84380       -2.51490
H          1.66310       -0.31620       -3.80270
H          1.88060       -1.05650        3.08770
