16
gdb 13306	5.64257	1.2706	1.09948	2.1115	72.46	-0.2339	0.0098	0.2437	1060.7092	0.129488	-346.569494	-346.561738	-346.560794	-346.602121	28.419
C         -0.04310       -1.20920       -0.08280
C         -0.02380       -0.00770       -0.09060
C          0.01200        1.44820       -0.07880
C          1.43310        2.02120        0.13590
O          2.27840        1.67310       -0.95910
C          2.81960        2.84300       -1.56690
C          2.24270        3.99140       -0.78910
C          1.46590        3.52660        0.18170
H         -0.06080       -2.27060       -0.08600
H         -0.37940        1.84720       -1.02210
H         -0.63860        1.82580        0.72130
H          1.84010        1.57640        1.05790
H          3.91980        2.81540       -1.51660
H          2.54670        2.87380       -2.63320
H          2.45990        5.02830       -1.01210
H          0.91780        4.10500        0.91470
