17
gdb 3080	6.31557	1.34826	1.27793	2.0862	61.2	-0.2549	0.0864	0.3413	978.7322	0.147517	-346.822341	-346.814544	-346.8136	-346.855126	27.846
O          0.03540        1.27750       -0.56500
C         -0.14140        0.07430        0.15620
C         -1.59320       -0.37640        0.13150
O         -1.93410       -0.56250       -1.23670
C         -3.28510       -0.83080       -1.45120
C         -4.26260        0.31470       -1.52000
C         -3.84360       -0.42670       -2.77540
H         -0.38960        1.13100       -1.41830
H          0.49230       -0.73290       -0.24480
H          0.16910        0.26460        1.18870
H         -1.72350       -1.31300        0.69680
H         -2.23810        0.39300        0.58000
H         -3.62700       -1.76700       -1.00830
H         -5.26590        0.17150       -1.13460
H         -3.85850        1.31140       -1.38140
H         -3.16630        0.08630       -3.44870
H         -4.55440       -1.08560       -3.26080
