14
gdb 2991	5.42454	1.88314	1.71681	1.5719	54.37	-0.2491	-0.0448	0.2043	742.0814	0.113094	-361.687451	-361.680528	-361.679584	-361.718618	24.76
O         -0.79920        0.81690        0.10680
C         -0.12810       -0.38520       -0.15270
C          1.05310       -0.13300       -1.06910
O          1.32670        0.97980       -1.45080
C          0.37550       -1.04120        1.13780
C          0.97590       -0.19670        2.19870
N         -0.35580       -0.80320        2.38080
H         -0.29860        1.50200       -0.36640
H         -0.80520       -1.09500       -0.65910
H          1.66130       -1.01490       -1.35190
H          0.72430       -2.06360        1.00600
H          1.75860       -0.59680        2.83610
H          1.02520        0.87270        2.01510
H         -1.05750       -0.08650        2.20110
