18
gdb 4072	4.62979	1.09296	1.0119	0.791	72.34	-0.2375	0.0128	0.2503	1199.8632	0.151986	-381.049285	-381.040322	-381.039377	-381.083772	31.843
C         -1.04760        0.66160       -0.17610
C          0.27920       -0.02980       -0.03880
C          0.62640       -0.69890        1.26760
N         -0.35550       -1.73450        1.59290
C         -0.07400       -3.06470        1.06080
C          0.09640       -2.77370        2.51140
N          1.17470       -0.10480       -0.94820
O          0.79260        0.56740       -2.12030
H         -0.93770        1.73740        0.00790
H         -1.43990        0.54700       -1.18840
H         -1.75620        0.25480        0.54710
H          1.65490       -1.08640        1.20120
H          0.59650        0.04380        2.07690
H         -0.93550       -3.62410        0.70780
H          0.82870       -3.19150        0.46610
H          1.11590       -2.71200        2.88880
H         -0.63690       -3.11640        3.23590
H          1.53870        0.39290       -2.70350
