12
gdb 16273	3.1939	2.16692	1.47019	5.3998	56.25	-0.2693	-0.0463	0.2231	803.7733	0.082551	-418.47437	-418.467684	-418.46674	-418.505602	23.954
O         -0.21410        0.00980        0.09530
C         -0.06680        1.19980       -0.00870
C          1.23790        1.88490       -0.00910
C          1.39730        3.38440        0.35860
C          1.81130        2.93060       -0.97370
O          3.11530        2.31710       -0.91420
C          2.62800        1.29270       -0.09320
O          3.21520        0.34140        0.28900
H         -0.93370        1.89110       -0.12260
H          0.44930        3.91170        0.42630
H          2.14540        3.66480        1.09210
H          1.44650        3.24400       -1.94140
