21
gdb 7595	2.66872	1.69449	1.43777	1.5761	75.02	-0.2213	0.0689	0.2902	1019.939	0.185922	-366.233751	-366.223927	-366.222982	-366.267712	36.295
C          1.53390       -2.23360        1.24360
C          0.42410       -1.70700        0.33020
O         -0.21530       -0.56240        0.89770
C          0.89640       -1.42720       -1.09650
C          2.00610       -0.40060       -1.24010
C          0.79620       -2.53660       -2.09500
N         -0.07980       -1.37610       -2.19030
C         -1.50370       -1.55410       -1.93870
H          1.98120       -3.14570        0.83630
H          2.33390       -1.49520        1.36750
H          1.12470       -2.45580        2.23300
H         -0.36710       -2.46090        0.29170
H          0.46080        0.10260        1.06500
H          2.94090       -0.73790       -0.78090
H          2.19020       -0.20660       -2.29870
H          1.72340        0.55430       -0.78100
H          1.54290       -2.64780       -2.87840
H          0.35810       -3.47660       -1.75600
H         -1.75770       -2.42970       -1.32190
H         -1.89520       -0.66320       -1.44080
H         -2.01230       -1.67050       -2.90130
