8
gdb 789	9.95029	3.94579	2.82538	2.7179	35.95	-0.2744	-0.0275	0.2469	412.1914	0.0514	-337.28389	-337.279525	-337.27858	-337.311504	15.356
O          0.11520        1.31350       -0.09010
C          0.06580       -0.01560       -0.07150
N         -0.05190       -0.71680       -1.17120
O         -0.06170       -2.03760       -0.67630
C          0.05100       -1.95060        0.64310
N          0.13460       -0.73950        1.09710
H          0.20200        1.60890        0.82470
H          0.06190       -2.87420        1.20340
