15
gdb 12431	3.7747	2.04827	1.40553	3.2326	73.71	-0.2324	-0.0597	0.1727	854.9517	0.121262	-362.676969	-362.67038	-362.669435	-362.707738	25.389
N         -0.05300        1.20450        0.62490
C          0.04020        0.10940       -0.02150
O          1.25670       -0.46260       -0.25270
C          1.40670       -1.29230       -1.41860
C          0.88450       -2.68320       -1.22240
C         -0.40370       -2.90530       -0.92760
C         -1.39640       -1.85760       -0.76460
C         -1.19760       -0.56350       -0.44130
H          0.88250        1.54700        0.85270
H          0.89580       -0.80990       -2.26440
H          2.47890       -1.29330       -1.62280
H          1.57290       -3.51370       -1.34150
H         -0.76160       -3.92730       -0.83350
H         -2.42970       -2.16800       -0.90310
H         -2.05930        0.08700       -0.34050
