17
gdb 20005	3.93582	1.24902	1.03551	3.2174	70.56	-0.2456	-0.0245	0.2211	1133.099	0.14164	-363.827535	-363.819624	-363.81868	-363.860684	28.829
O         -0.36630        0.44060        0.77440
C          0.26320        0.74770       -0.20720
C          1.38310        1.72690       -0.19630
N          2.34090        1.62040       -1.31900
C          1.50590        2.80940       -1.24070
C          0.51270        3.04720       -2.33140
C         -0.43380        4.21880       -2.23300
C          0.68510        4.24010       -3.24140
H          0.05120        0.30650       -1.20530
H          1.74800        1.96820        0.79930
H          3.28610        1.79800       -0.99170
H          1.96550        3.72350       -0.86130
H          0.12940        2.14380       -2.79280
H         -1.45020        4.08530       -2.58510
H         -0.34780        4.86640       -1.36640
H          1.52460        4.90220       -3.05480
H          0.44160        4.11920       -4.29080
