21
gdb 1572	4.31202	1.36327	1.10639	1.0487	71.86	-0.2476	0.0865	0.3341	1146.0763	0.192496	-312.12312	-312.113577	-312.112633	-312.157458	33.356
C         -0.01670        1.59860       -0.03080
C          0.00550        0.06920        0.02790
C         -1.39550       -0.55010        0.01340
C         -1.39340       -2.07960        0.02780
C         -2.80900       -2.65520        0.13050
O         -0.74040       -2.50010       -1.16690
C         -0.26370       -3.82340       -1.15030
H          0.99630        2.01330       -0.01880
H         -0.50900        1.95230       -0.94370
H         -0.55980        2.02410        0.82110
H          0.57260       -0.33080       -0.81860
H          0.53400       -0.25510        0.93470
H         -1.97010       -0.19450        0.87830
H         -1.93800       -0.21780       -0.88180
H         -0.80230       -2.42670        0.89430
H         -3.41500       -2.32350       -0.71870
H         -2.80290       -3.74900        0.13970
H         -3.29270       -2.31990        1.05350
H          0.29060       -3.97790       -2.08000
H          0.41550       -4.00150       -0.30120
H         -1.07180       -4.56830       -1.10310
