18
gdb 11660	3.06681	1.89294	1.51585	2.8723	72.1	-0.2353	0.0152	0.2505	917.924	0.153922	-347.781735	-347.774084	-347.773139	-347.81385	28.918
C         -0.05190        1.53930        0.03520
C          0.03080        0.00800       -0.01990
C          0.72050       -0.48990       -1.26090
C          2.19290       -0.21700       -1.75580
C          1.61170       -1.13930       -2.87890
C          0.97830       -1.97430       -1.71600
C          0.35510       -0.26850       -2.74170
O         -0.46600        0.28500       -3.40790
H          0.94610        1.98970        0.05410
H         -0.58130        1.93060       -0.83860
H         -0.58340        1.86990        0.93220
H          0.55030       -0.37460        0.86790
H         -0.98070       -0.41660        0.00930
H          2.45940        0.80630       -2.02690
H          2.96340       -0.69000       -1.14110
H          2.11690       -1.50750       -3.76820
H          1.70560       -2.51030       -1.10040
H          0.10750       -2.59150       -1.94730
