14
gdb 12216	4.23842	1.49649	1.17053	4.5813	61.27	-0.2426	-0.0418	0.2009	974.1948	0.107324	-415.886553	-415.878711	-415.877767	-415.919197	27.158
N          0.01890        1.51290        0.21840
C         -0.00670        0.08570        0.00070
C         -1.40980       -0.58600       -0.10470
N         -0.99030       -1.16190       -1.39810
C         -1.65400       -2.01060       -2.26580
O         -1.21930       -2.40540       -3.31520
C          0.26760       -0.50840       -1.41260
O          1.13230       -0.43900       -2.23080
H          0.97770        1.83610        0.29830
H         -0.38610        2.00580       -0.57290
H          0.62250       -0.40140        0.75120
H         -1.64530       -1.32840        0.66110
H         -2.22870        0.13330       -0.19380
H         -2.65090       -2.28960       -1.86770
