12
gdb 21632	3.48222	2.4877	1.45106	2.8703	61.78	-0.2393	-0.0602	0.1791	776.2455	0.085602	-410.834295	-410.827774	-410.82683	-410.864926	24.499
N          0.02950        1.30610       -0.13280
C         -0.03190       -0.02360       -0.02310
N         -1.16030       -0.66350        0.09410
C         -1.04340       -2.02460        0.19600
N          0.00680       -2.77300        0.19420
O          1.23480       -2.06700        0.06590
C          1.27770       -0.72070       -0.04420
N          2.35550       -0.05690       -0.16030
H          0.93910        1.73200       -0.22020
H         -0.81660        1.84970       -0.12670
H         -1.96940       -2.58440        0.29490
H          3.17380       -0.66660       -0.15950
