17
gdb 15558	3.38717	1.79359	1.28848	3.9415	73.01	-0.2111	-0.0011	0.21	953.8901	0.143009	-363.904886	-363.897226	-363.896282	-363.937109	28.248
C          0.07290        1.57190       -0.00050
C          0.00580        0.04300        0.00930
C          0.73580       -0.59660       -1.21140
C          1.97170       -1.21640       -0.59910
C          1.90440       -1.16150        0.73070
N          0.73700       -0.52000        1.16890
C          0.33740       -0.44740        2.46980
O          0.95420       -0.89800        3.41350
H          1.11370        1.90720       -0.04860
H         -0.45890        1.96740       -0.87190
H         -0.38320        1.99730        0.89840
H         -1.03920       -0.27810        0.05710
H          0.11310       -1.34980       -1.71060
H          0.96850        0.16460       -1.96500
H          2.77500       -1.66160       -1.16750
H          2.58470       -1.52990        1.48360
H         -0.63400        0.07440        2.57360
