16
gdb 13961	5.27831	1.25939	1.15809	3.2087	65.47	-0.2387	-0.0233	0.2154	1032.9856	0.128927	-383.701786	-383.694148	-383.693204	-383.734821	27.437
O          0.14490       -0.11730       -0.01060
C          0.06870        1.07150       -0.18210
C          1.22750        2.03800        0.00530
C          1.34440        2.99620       -1.14370
C          1.99680        2.74600       -2.46960
C          2.41500        3.94520       -1.63710
C          1.29630        4.97870       -1.67380
O          0.30950        3.98260       -1.28440
H         -0.88480        1.55250       -0.49140
H          1.04110        2.60790        0.92670
H          2.14700        1.46090        0.13360
H          2.72220        1.93860       -2.49120
H          1.42640        2.88020       -3.38490
H          3.42850        4.10850       -1.29690
H          1.38100        5.75290       -0.90320
H          1.06180        5.44070       -2.63990
