16
gdb 9704	3.81693	1.58298	1.5701	2.3298	65.85	-0.2494	-0.0349	0.2145	881.9387	0.12985	-383.761467	-383.753992	-383.753048	-383.793575	28.065
O          0.17740        1.54390       -0.19460
C         -0.01660        0.18220        0.07710
C          0.53100       -0.23990        1.48250
C         -0.54170       -1.13710        2.04070
C         -1.64840       -1.12720        1.29960
C         -1.52970       -0.22130        0.10270
C          0.68660       -0.64220       -0.98380
O          1.30070       -0.13730       -1.89250
H          0.71830        1.57860       -1.00010
H          1.51330       -0.72640        1.42460
H          0.67030        0.66940        2.07920
H         -0.41240       -1.69000        2.96440
H         -2.55850       -1.67080        1.52720
H         -2.12310        0.69460        0.20900
H         -1.85650       -0.69580       -0.83170
H          0.60200       -1.74270       -0.87380
