16
gdb 7216	3.20876	1.19869	0.96957	3.2819	69.95	-0.248	-0.0298	0.2182	1227.2522	0.126434	-383.734091	-383.724258	-383.723314	-383.771072	32.661
C          0.14040        1.43670        0.09720
C          0.08160       -0.01710        0.06310
C          0.01950       -1.21980        0.04610
C         -0.07140       -2.68480        0.01140
O         -1.39350       -3.15170        0.04240
C          0.63610       -3.21070       -1.26510
C          2.11460       -2.96330       -1.41160
O         -0.02860       -3.80740       -2.08090
H          0.89880        1.78770        0.80540
H          0.38390        1.85130       -0.88700
H         -0.82230        1.85820        0.40620
H          0.47680       -3.09350        0.87670
H         -1.53820       -3.53750       -0.83840
H          2.33360       -1.89910       -1.28980
H          2.65420       -3.49540       -0.61940
H          2.45800       -3.31560       -2.38470
