14
gdb 18315	3.85079	2.14675	1.48132	2.1929	63.35	-0.2381	-0.0319	0.2061	803.7322	0.109076	-378.708312	-378.702032	-378.701088	-378.738816	23.983
O         -0.22050       -0.03560        0.16920
C         -0.07380        1.14760        0.07370
C         -1.19310        2.24550        0.06780
N         -0.56290        3.46330        0.61900
C          0.68430        3.27750        0.44820
N          1.88230        3.69640        1.02410
C          2.37490        2.27080        0.95780
C          1.22070        1.98000       -0.06140
H         -1.57020        2.37950       -0.95610
H         -2.03890        1.93300        0.68740
H          1.85610        4.19570        1.90730
H          3.39210        2.17540        0.57530
H          2.26880        1.73560        1.90600
H          1.56590        1.94750       -1.09790
