17
gdb 14959	4.66058	1.56806	1.21919	2.9043	76.63	-0.2345	-0.0262	0.2084	997.5099	0.143328	-363.88333	-363.875706	-363.874761	-363.915617	27.938
C         -0.00700        1.43400       -0.13330
N         -0.01020       -0.01770       -0.12750
C         -1.09810       -0.63470        0.09460
O         -2.28480        0.02400        0.28370
C         -3.32710       -0.69690        0.95170
C         -3.58920       -2.05700        0.31290
C         -2.28350       -2.78220        0.14320
C         -1.13630       -2.10100        0.07850
H          0.98040        1.78630        0.17990
H         -0.17260        1.80560       -1.15360
H         -0.77390        1.88160        0.50960
H         -3.05050       -0.83170        2.00620
H         -4.20380       -0.04670        0.90640
H         -4.27720       -2.62640        0.94880
H         -4.09010       -1.93910       -0.65830
H         -2.29110       -3.86510        0.06440
H         -0.17260       -2.58020       -0.04260
