18
gdb 13077	4.28798	1.26502	1.05335	2.3286	73.78	-0.2428	0.0545	0.2974	1135.3965	0.152028	-347.752471	-347.743767	-347.742823	-347.786565	31.33
C         -0.22230        1.55640       -0.10760
C         -0.00610        0.05020       -0.03480
C          1.26090       -0.50470       -0.72390
O          1.79490       -0.98360        0.52640
C          0.61620       -0.57340        1.24890
C          0.94420        0.33350        2.43990
C          1.62460       -0.38210        3.51180
C          2.17500       -0.98990        4.39010
H          0.68400        2.11310        0.15110
H         -0.50680        1.84860       -1.12400
H         -1.02360        1.88300        0.56370
H         -0.92100       -0.46580       -0.33720
H          1.09480       -1.32020       -1.43900
H          1.91540        0.24490       -1.18810
H          0.06290       -1.44820        1.61600
H          1.56540        1.16940        2.09950
H          0.00770        0.76430        2.81940
H          2.67050       -1.52160        5.16400
