17
gdb 11443	4.39115	1.34349	1.23067	2.7246	65.35	-0.2537	0.0319	0.2856	1012.3034	0.14339	-401.016363	-401.008563	-401.007619	-401.048867	28.592
O          0.13580        1.15260       -0.45380
C         -0.02460       -0.23370       -0.19630
C         -1.47950       -0.46610        0.20680
C         -2.44600       -0.14120       -0.94460
O         -2.58530       -1.36390       -1.69130
C         -2.24450       -2.43880       -0.91940
N         -2.30580       -3.64300       -1.29400
C         -1.78090       -1.95470        0.43980
H          1.01950        1.29780       -0.80340
H          0.21450       -0.83760       -1.08610
H          0.63600       -0.56910        0.61810
H         -1.69560        0.15150        1.08210
H         -3.43250        0.16400       -0.57550
H         -2.06140        0.62900       -1.61500
H         -2.66760       -3.70040       -2.24780
H         -0.93160       -2.54180        0.79430
H         -2.59370       -2.08610        1.16190
