17
gdb 10192	2.61867	1.42359	1.0632	4.2575	65.74	-0.2834	0.0151	0.2985	1149.7728	0.140239	-400.998708	-400.989392	-400.988448	-401.033372	31.95
C          0.06870        1.47880        0.17290
C         -0.10520       -0.02840        0.19940
O          0.87740       -0.57230        1.08030
C          0.86540       -1.97630        1.20570
C          2.08410       -2.33200        2.07100
O          2.02890       -1.70110        3.32420
C         -0.39390       -2.45730        1.81830
N         -1.38960       -2.83140        2.26930
H          1.06890        1.74830       -0.17770
H         -0.66780        1.92860       -0.49890
H         -0.07330        1.89980        1.17210
H         -1.11050       -0.30210        0.54830
H          0.02900       -0.45880       -0.80520
H          0.96180       -2.46130        0.22040
H          2.11310       -3.41120        2.24520
H          2.97900       -2.04600        1.49760
H          1.87970       -0.76330        3.15360
