17
gdb 19703	5.73284	1.83884	1.67554	1.5551	72.15	-0.2128	-0.0049	0.2079	815.9107	0.143802	-326.643252	-326.637005	-326.636061	-326.673166	25.713
C         -0.14450        1.57550        0.08440
C          0.02660        0.07160       -0.01750
C          0.79260       -0.60920       -1.16420
C          2.12190       -0.16320       -0.47470
C          3.13210       -1.28440       -0.59330
C          2.39090       -2.37630       -0.40180
C          1.00560       -1.80750       -0.18770
N          1.20960       -0.56330        0.73590
H          0.74020        2.13370       -0.23190
H         -0.98370        1.90160       -0.53960
H         -0.36810        1.85860        1.11830
H         -0.91150       -0.42440        0.26040
H          0.56680       -0.64410       -2.23880
H          2.46390        0.86960       -0.49600
H          4.19410       -1.17890       -0.76140
H          2.67140       -3.41910       -0.36860
H          0.17380       -2.45760        0.08730
