16
gdb 6650	7.03931	0.82615	0.75016	3.7019	68.76	-0.2488	-0.014	0.2348	1461.5721	0.125473	-383.70309	-383.69349	-383.692546	-383.738989	32.046
C         -0.10370        1.49130       -0.03760
C          0.08330       -0.01550        0.02240
O          1.16610       -0.54120        0.03870
C         -1.21630       -0.81850        0.05510
O         -0.94460       -2.18710       -0.00570
C         -2.12180       -2.97200        0.04580
C         -1.78060       -4.38590       -0.02390
C         -1.53180       -5.55890       -0.07970
H          0.85190        1.98410        0.14360
H         -0.47030        1.77900       -1.03020
H         -0.84590        1.83390        0.69120
H         -1.76020       -0.54810        0.98010
H         -1.85830       -0.48700       -0.78220
H         -2.67950       -2.76950        0.97660
H         -2.79640       -2.71140       -0.78820
H         -1.30020       -6.59420       -0.12930
