17
gdb 3437	4.38224	2.85672	2.08512	0.2365	68.38	-0.2244	0.0228	0.2472	682.9414	0.150041	-272.582834	-272.576579	-272.575635	-272.612484	24.991
C         -0.15460        1.58510        0.01860
C          0.03420        0.06060        0.00650
C          0.83810       -0.46120       -1.17270
C          1.81690       -1.28870       -0.80020
C          1.89540       -1.41590        0.68480
C          2.24300       -0.12920        1.41030
C          0.79660       -0.50770        1.21060
H          0.80800        2.10390        0.06050
H         -0.67860        1.92280       -0.88200
H         -0.74530        1.89910        0.88530
H         -0.96910       -0.39200       -0.01880
H          0.62460       -0.15870       -2.19260
H          2.50810       -1.78800       -1.47040
H          2.14210       -2.36620        1.14550
H          2.63000       -0.21050        2.42100
H          2.67370        0.67630        0.82480
H          0.22910       -0.78110        2.09270
