17
gdb 6692	6.96363	0.75052	0.7114	4.1372	72.3	-0.2742	-0.0226	0.2515	1569.6437	0.139054	-401.026321	-401.017093	-401.016149	-401.060834	31.661
C          0.01090        1.52680       -0.03770
C          0.00160       -0.00580       -0.03850
C         -1.42630       -0.56270       -0.03740
N          0.68590       -0.47670       -1.23990
C          1.70870       -1.18080       -1.09500
O          2.37750       -1.64130       -2.20210
C          3.48870       -2.40360       -2.00800
O          4.12260       -2.83970       -2.91530
H          1.03430        1.91270       -0.02400
H         -0.48430        1.90950       -0.93500
H         -0.51430        1.91040        0.84250
H          0.51730       -0.36040        0.87190
H         -1.96090       -0.23760       -0.93480
H         -1.42060       -1.65650       -0.02330
H         -1.97230       -0.20930        0.84270
H          2.15510       -1.48810       -0.13950
H          3.72170       -2.56230       -0.93940
