13
gdb 4989	3.41755	2.36642	1.39824	0.333	63.29	-0.218	-0.0141	0.2039	810.5025	0.097891	-398.671774	-398.66546	-398.664516	-398.701938	24.823
O          0.06850        1.38610       -0.10600
C          0.05530        0.02900       -0.07620
C         -0.02230       -0.71740       -1.23830
C         -0.03190       -2.11270       -1.14580
C          0.03640       -2.70190        0.10600
N          0.11180       -1.98670        1.24130
C          0.12010       -0.67600        1.13950
O          0.19580        0.07930        2.26940
H          0.12400        1.69810        0.80610
H         -0.07390       -0.20620       -2.19300
H         -0.09190       -2.72430       -2.03830
H          0.03140       -3.78130        0.22080
H          0.23160       -0.53910        3.01140
