16
gdb 16281	3.3664	1.80514	1.44714	1.8458	72.19	-0.2433	0.0198	0.2631	909.2379	0.128629	-346.535666	-346.527996	-346.527052	-346.567314	29.297
C         -0.05890        1.55450        0.08250
C          0.03950        0.04310       -0.04510
C          1.16910       -0.57050       -0.95440
C          1.71840       -1.29040        0.27970
O          2.03490       -0.29310        1.25060
C          0.66150       -0.72220        1.15130
C          0.00280       -1.21890        2.30950
C         -0.60540       -1.61630        3.26810
H          0.90340        1.97370        0.38900
H         -0.34320        2.00900       -0.87240
H         -0.81070        1.83890        0.82630
H         -0.92870       -0.39690       -0.30110
H          0.77740       -1.24560       -1.71840
H          1.86360        0.13900       -1.41130
H          2.24100       -2.23730        0.35440
H         -1.12980       -1.97270        4.12000
