18
gdb 5319	4.31996	1.45344	1.18396	0.8601	73.02	-0.2185	0.0244	0.2429	1042.5946	0.154232	-347.839941	-347.832055	-347.831111	-347.872444	29.645
C          0.09150        1.35490       -0.37620
C          0.03770       -0.10120        0.12510
C          0.68020       -0.22440        1.51290
C         -1.37180       -0.63300        0.09470
C         -2.15190       -1.02270        1.14050
O         -3.37760       -1.43670        0.71360
C         -3.38200       -1.31000       -0.63810
C         -2.19250       -0.82620       -1.07430
H          1.12550        1.71390       -0.41510
H         -0.33760        1.45000       -1.37800
H         -0.47370        2.01360        0.29190
H          0.63280       -0.70760       -0.57290
H          0.14490        0.38550        2.24960
H          0.67740       -1.26060        1.86450
H          1.71760        0.12310        1.48910
H         -1.99310       -1.07140        2.20440
H         -4.29290       -1.60420       -1.13320
H         -1.91780       -0.63150       -2.09990
