19
gdb 15995	2.7326	2.01519	1.33824	2.9656	71.53	-0.2314	0.0622	0.2936	960.3793	0.166109	-365.018077	-365.009974	-365.00903	-365.050549	30.604
O          0.35480        0.38290        0.92550
C         -0.21150        0.31330       -0.38150
C         -1.51590       -0.44530       -0.26480
C         -2.27420       -0.84980       -1.56390
C         -2.54590       -2.25520       -0.94690
C         -1.47680       -1.93780        0.10300
C         -0.27470       -2.72700        0.45390
N         -1.37790       -2.53980        1.42380
H          1.19530        0.84690        0.86990
H         -0.39160        1.32070       -0.79000
H          0.46210       -0.21280       -1.07620
H         -2.17910        0.09420        0.42240
H         -3.14280       -0.24690       -1.83480
H         -1.60240       -0.90250       -2.42600
H         -3.54200       -2.33160       -0.50110
H         -2.37990       -3.12400       -1.58820
H         -0.16460       -3.74180        0.07930
H          0.65370       -2.19270        0.63110
H         -1.10430       -1.82380        2.09430
