12
gdb 859	7.26724	2.01738	1.57904	2.0191	51.69	-0.1714	0.0648	0.2362	711.4937	0.090094	-360.535142	-360.528204	-360.52726	-360.565607	25.256
O          0.08880        1.32980        0.17550
C          0.07910       -0.01660        0.00050
C          0.16560       -0.81770       -1.11720
C          0.09600       -2.16480       -0.63690
O          0.14220       -3.30800       -1.38300
C         -0.02770       -2.14140        0.72710
N         -0.03620       -0.79780        1.10220
H          0.17600        1.74700       -0.68630
H          0.26520       -0.48980       -2.14130
H          0.23100       -3.06290       -2.30760
H         -0.10860       -2.93480        1.44810
H         -0.11520       -0.44420        2.03860
