18
gdb 19044	4.20386	1.99657	1.73459	0.3476	76.28	-0.2104	0.0262	0.2366	829.6407	0.155697	-310.647076	-310.640589	-310.639645	-310.677286	26.717
C          0.07140        1.46860        0.03720
C         -0.04190       -0.02060       -0.03240
C         -0.13610       -0.80240       -1.11660
C         -0.04810       -2.25360       -0.70310
C          1.42420       -2.50430       -0.17900
C          0.94690       -2.11330        1.21330
C         -0.49730       -2.26740        0.79890
C         -0.01880       -0.89660        1.18190
H          1.02750        1.77540        0.48050
H         -0.00230        1.92310       -0.95460
H         -0.71590        1.90080        0.66830
H         -0.09540       -0.46770       -2.14680
H         -0.45040       -2.99290       -1.39400
H          1.66880       -3.56960       -0.20600
H          2.22590       -1.92830       -0.65380
H          1.42190       -2.38560        2.14860
H         -1.31890       -2.80800        1.25330
H         -0.27080       -0.49670        2.15860
