16
gdb 6448	3.90249	1.43491	1.25936	2.8292	66.42	-0.2313	0.0116	0.2429	995.516	0.129227	-379.898416	-379.890199	-379.889255	-379.930904	29.91
C         -0.04140        1.52050        0.11030
N         -0.01480        0.07570        0.12390
C         -1.24110       -0.64970        0.49500
C         -0.37300       -1.67890        1.26630
O         -0.17870       -2.82750        0.47720
C          0.75720       -0.60460        1.17460
C         -0.80690       -2.03400        2.62200
N         -1.12060       -2.33300        3.69380
H          0.95950        1.90600       -0.10890
H         -0.71440        1.86980       -0.67940
H         -0.37770        1.95950        1.06910
H         -1.91170       -0.09020        1.16440
H         -1.81030       -1.07090       -0.33860
H          0.47980       -3.38770        0.90410
H          1.74020       -0.97780        0.86740
H          0.85460       -0.02880        2.10840
