16
gdb 18181	4.14947	1.80068	1.47277	0.7901	74.63	-0.2326	0.0137	0.2462	869.7665	0.131134	-309.426802	-309.419945	-309.419001	-309.457634	27.291
C         -0.06360       -1.25970       -0.14050
C         -0.02880       -0.06040       -0.06360
C          0.00630        1.39710        0.03990
C         -0.60490        1.92880        1.33640
C          0.20930        2.78050        1.95970
C          1.51790        2.92010        1.25780
C          2.34170        1.64670        1.19010
C          1.42400        2.00020        0.05310
H         -0.09210       -2.31850       -0.21230
H         -0.55000        1.80740       -0.81660
H         -1.57820        1.60010        1.67900
H         -0.01710        3.29240        2.88830
H          2.02060        3.87990        1.21700
H          3.40580        1.74640        1.00340
H          2.06770        0.82980        1.84900
H          1.86480        2.26980       -0.89840
