13
gdb 10248	3.28561	1.73118	1.14188	4.488	57.34	-0.2626	-0.05	0.2125	962.48	0.092533	-435.796744	-435.788247	-435.787303	-435.832599	27.849
C          0.02360        1.52740        0.00950
C          0.04660        0.01140        0.00170
O          1.08580       -0.60110       -0.01120
N         -1.20100       -0.68660        0.00990
C         -1.13350       -2.12160        0.00180
O         -2.08270       -2.84670        0.00630
C         -2.44240       -0.00250        0.02550
O         -3.52070       -0.51960        0.03330
H          1.06270        1.85480        0.00110
H         -0.48870        1.93130       -0.86850
H         -0.47150        1.92230        0.90140
H         -0.08630       -2.44850       -0.01010
H         -2.30720        1.08970        0.02960
