14
gdb 1552	4.07281	1.71553	1.28068	3.945	54.67	-0.2769	0.0082	0.2851	907.1759	0.111602	-361.702143	-361.693965	-361.693021	-361.735066	27.285
C         -0.25080        1.32360        0.60420
O         -0.20190       -0.08440        0.68670
C          1.05910       -0.61490        0.38660
C          0.99490       -2.13410        0.60570
O          2.17500       -2.77660        0.16850
C          0.69600       -2.45150        2.01640
N          0.52270       -2.70660        3.12980
H         -0.01580        1.67880       -0.41070
H         -1.26800        1.62620        0.86040
H          0.45130        1.79400        1.30900
H          1.34380       -0.43950       -0.66280
H          1.84470       -0.17970        1.02820
H          0.18290       -2.53140       -0.01160
H          2.88870       -2.55300        0.77700
