18
gdb 15790	2.58502	1.83069	1.2069	4.1649	68.82	-0.2361	0.0215	0.2577	1023.5989	0.154066	-381.122666	-381.114051	-381.113107	-381.155977	30.992
C          0.34170        1.76450       -0.16150
C         -0.01370        0.28560        0.00050
N         -1.46250        0.14670        0.18510
C         -2.01640       -0.86440        0.89660
O         -1.39590       -1.76650        1.42810
C          0.49420       -0.54890       -1.16250
C          1.77800       -1.28380       -1.02820
N          0.50320       -2.01230       -1.07020
H          1.42350        1.88370       -0.26000
H         -0.12080        2.18310       -1.06360
H          0.00420        2.34730        0.70020
H          0.43750       -0.10560        0.91880
H         -2.07490        0.82330       -0.24310
H         -3.11830       -0.77860        0.96010
H          0.20860       -0.17140       -2.14490
H          2.42080       -1.42270       -1.89310
H          2.30830       -1.20750       -0.08110
H          0.21400       -2.28960       -0.13320
