17
gdb 15074	2.48501	1.78747	1.17425	2.6509	65.92	-0.2444	-0.0366	0.2078	1033.9033	0.14044	-400.960132	-400.951404	-400.95046	-400.994111	30.128
C         -0.04750        1.51770        0.22420
O         -0.32240        0.19560        0.64970
C         -1.40530       -0.40820       -0.02300
C         -0.99540       -0.87170       -1.41970
O         -1.76350       -1.03370       -2.33060
C         -1.84610       -1.63750        0.76470
C         -0.84400       -2.48870        1.45410
N         -1.76780       -1.63330        2.22510
H          0.79310        1.87740        0.82100
H          0.22850        1.55990       -0.83910
H         -0.91290        2.17670        0.38450
H         -2.25340        0.28790       -0.11780
H          0.09340       -1.09320       -1.50630
H         -2.74130       -2.09580        0.35280
H         -1.01790       -3.55630        1.54870
H          0.19790       -2.18940        1.39880
H         -1.26120       -0.79750        2.51170
