16
gdb 12252	3.10068	1.67193	1.3173	4.1528	61.82	-0.233	-0.0253	0.2077	961.3135	0.128279	-420.862533	-420.854234	-420.853289	-420.895511	29.763
C          0.02300        1.28520       -0.16710
O         -0.09930       -0.02720        0.34050
C         -1.36250       -0.61920        0.13690
C         -1.51620       -1.23340       -1.28460
C         -0.92860       -2.53910       -0.69650
O         -0.33230       -3.46410       -1.15780
C         -1.25770       -2.05680        0.74560
O         -0.40660       -2.28030        1.81600
H          1.02740        1.63420        0.08200
H         -0.10420        1.31880       -1.25820
H         -0.71590        1.95920        0.29050
H         -2.16930        0.02940        0.49760
H         -2.55860       -1.34830       -1.59810
H         -0.94570       -0.77220       -2.09260
H         -2.25600       -2.42590        1.01260
H          0.37760       -1.73950        1.65570
