20
gdb 17061	3.82014	1.51024	1.29592	1.1196	76.09	-0.2456	0.0988	0.3444	1038.3113	0.177203	-348.943281	-348.935256	-348.934312	-348.975596	30.522
C          0.24320        1.08110        0.70510
O          0.01090       -0.26160        1.06610
C         -1.24580       -0.73150        0.66150
C         -1.43880       -1.28370       -0.79240
C         -0.50550       -2.45860       -0.37020
C         -1.47670       -2.25050        0.83360
C         -2.62270       -2.13440       -0.22650
C         -3.98840       -1.53970        0.09360
H          1.21540        1.36540        1.11480
H          0.26440        1.21790       -0.38650
H         -0.52580        1.75200        1.12000
H         -2.02640       -0.05830        1.03460
H         -1.42230       -0.72610       -1.73080
H         -0.62220       -3.39110       -0.92910
H          0.53990       -2.21170       -0.19470
H         -1.49680       -2.80450        1.77370
H         -2.75610       -3.06830       -0.78310
H         -3.94690       -0.60050        0.64980
H         -4.54370       -1.34890       -0.83170
H         -4.57970       -2.24640        0.68660
