15
gdb 4867	4.60373	1.39103	1.1359	2.579	65.8	-0.1873	0.0266	0.2139	1022.7476	0.119345	-399.819296	-399.811378	-399.810434	-399.851893	28.751
N          0.23550        1.27870       -0.03700
C         -0.03200       -0.08260       -0.02800
C         -1.17350       -0.81710        0.10480
C         -0.74660       -2.18780        0.13170
C          0.60430       -2.19600        0.01850
C          1.64990       -3.24640       -0.05490
O          2.22820       -3.40230       -1.35170
O          1.05520       -0.88690       -0.07810
H          1.05280        1.51420       -0.58560
H         -0.56010        1.83150       -0.32430
H         -2.17980       -0.43720        0.17530
H         -1.37610       -3.06020        0.21910
H          2.43580       -3.04970        0.69150
H          1.19370       -4.20870        0.19190
H          2.57620       -2.54220       -1.60840
