18
gdb 2684	6.23053	1.13497	1.05078	2.8623	68.65	-0.2422	0.0325	0.2747	1177.681	0.158206	-326.97667	-326.967955	-326.967011	-327.01049	30.067
C         -0.02710        1.18310       -0.78450
C         -0.10850       -0.11520        0.00850
O          1.00010       -0.97260       -0.26310
C          0.86260       -1.82760       -1.30150
N          1.84260       -2.51060       -1.68940
C          1.70070       -3.46620       -2.77450
C          0.34090       -3.61000       -3.46690
H          0.91940        1.69270       -0.58470
H         -0.09220        0.99260       -1.86040
H         -0.84860        1.85070       -0.50500
H         -0.06750        0.08290        1.08320
H         -1.05060       -0.64240       -0.19650
H         -0.15490       -1.85610       -1.71470
H          2.46020       -3.21050       -3.52560
H          2.00860       -4.44460       -2.38140
H         -0.44140       -3.93390       -2.77180
H          0.01720       -2.67160       -3.93030
H          0.41160       -4.36230       -4.25840
