18
gdb 19826	3.46112	2.17332	1.82791	1.2583	70.16	-0.2299	0.0674	0.2973	798.2806	0.155172	-347.74083	-347.734132	-347.733188	-347.771227	27.562
O          0.08590        1.45250       -0.16360
C          0.03140        0.05390        0.01200
C          0.28590       -0.54520        1.44260
C         -1.12030       -1.21470        1.39290
C         -2.33190       -0.46030        1.98990
C         -2.21960        1.02990        1.83600
C         -2.58940        0.21570        0.63100
C         -1.40060       -0.55180        0.01190
H          1.01110        1.71780       -0.15960
H          0.65900       -0.45210       -0.73580
H          1.12040       -1.25030        1.48210
H          0.42270        0.20070        2.22970
H         -1.15720       -2.29770        1.50550
H         -3.04370       -0.90180        2.67800
H         -3.04970        1.58210        2.26730
H         -1.27360        1.55460        1.88350
H         -3.52840        0.37420        0.11440
H         -1.67260       -1.15070       -0.85770
