20
gdb 11672	3.33655	1.71973	1.42463	1.6896	75.32	-0.2312	0.0925	0.3237	985.5027	0.175974	-348.95113	-348.942874	-348.94193	-348.983568	31.601
C          0.06690        1.53410        0.03910
C          0.01800        0.00500       -0.05490
C          0.62900       -0.52460       -1.31900
C          0.32800       -0.17800       -2.80390
C          1.61440       -1.02580       -2.73450
O          2.06510       -0.20130       -1.59070
C          0.91930       -2.00080       -1.74720
C          1.76850       -2.87810       -0.84780
H          1.09730        1.88990       -0.04430
H         -0.51370        1.99820       -0.76440
H         -0.34190        1.88030        0.99270
H          0.54650       -0.44200        0.79610
H         -1.01880       -0.35120       -0.00210
H         -0.56080       -0.61680       -3.26570
H          0.48250        0.86620       -3.07690
H          2.34720       -1.23490       -3.51450
H          0.05500       -2.53390       -2.15910
H          2.61910       -2.31330       -0.46010
H          1.18430       -3.25570       -0.00130
H          2.14760       -3.74770       -1.39560
