13
gdb 3707	7.7438	2.01847	1.61953	3.6044	56.97	-0.2139	0.0205	0.2344	738.1728	0.102364	-340.641866	-340.635241	-340.634297	-340.67209	24.35
C         -0.02640        1.49950       -0.01970
C          0.00710        0.00590        0.03990
N         -0.06960       -0.68760       -1.07170
O         -0.00980       -2.04250       -0.66420
C          0.09950       -2.08760        0.66840
N          0.23200       -3.34000        1.21880
C          0.11510       -0.82480        1.19030
H          0.88740        1.92830        0.40470
H         -0.12010        1.83120       -1.05540
H         -0.87120        1.89540        0.55360
H         -0.13440       -4.08360        0.64130
H         -0.06200       -3.41210        2.18090
H          0.19800       -0.53210        2.22320
