18
gdb 16179	4.33165	1.62253	1.40968	2.1408	67.12	-0.2272	0.0885	0.3157	932.5023	0.153931	-384.911696	-384.904092	-384.903148	-384.943476	28.793
C         -0.38300        1.36880       -0.22800
O          0.08010        0.06310        0.06700
C          0.79960       -0.52070       -0.96650
C          0.06500       -1.11420       -2.15910
C          0.78190       -2.00130       -1.15470
O          2.06260       -2.48200       -1.45670
C          2.86830       -1.36360       -1.84100
C          2.25430       -0.11320       -1.17690
H          0.44660        2.07590       -0.36970
H         -1.00840        1.37980       -1.13180
H         -0.98100        1.69490        0.62590
H         -1.01790       -1.11840       -2.09250
H          0.46050       -0.99590       -3.16270
H          0.21590       -2.67130       -0.51940
H          3.89430       -1.56490       -1.52220
H          2.86930       -1.26220       -2.93520
H          2.39540        0.77970       -1.79280
H          2.69180        0.07460       -0.19070
