13
gdb 8787	4.63734	1.33551	1.04373	0.9805	63.8	-0.2521	-0.0913	0.1609	1063.0539	0.09316	-398.603161	-398.594499	-398.593555	-398.63705	29.186
C         -0.06350        1.44870        0.07120
N          0.14710        0.01980       -0.02700
C          0.59230       -0.58400       -1.14830
O          0.87380       -0.04820       -2.20390
C          0.71970       -2.11130       -0.95740
O          0.43810       -2.64340        0.09680
C          1.19040       -2.84050       -2.10850
C          1.58050       -3.48480       -3.04700
H          0.56760        1.88850        0.85090
H          0.19970        1.88860       -0.89180
H         -1.11030        1.67930        0.29670
H         -0.03640       -0.58830        0.75820
H          1.92590       -4.04490       -3.88210
