18
gdb 18833	3.93875	2.16659	1.82638	1.6629	69.53	-0.2238	0.0812	0.305	793.4396	0.155736	-347.774528	-347.768089	-347.767145	-347.804745	26.385
C         -0.05600        1.56190        0.04520
C          0.03980        0.03770        0.00050
C          0.84860       -0.52210       -1.21130
C          1.63130       -1.70260       -0.63830
C          2.52600       -1.40120        0.54920
O          2.18810       -0.13610        1.12200
C          0.78490       -0.57320        1.18880
C          1.17990       -2.00770        0.78040
H          0.94410        1.99740        0.12940
H         -0.52710        1.95580       -0.86100
H         -0.64890        1.90030        0.90200
H         -0.97050       -0.39480       -0.01100
H          0.18930       -0.83960       -2.02430
H          1.51970        0.24360       -1.61430
H          1.93340       -2.52700       -1.27510
H          3.53600       -1.76920        0.68710
H          0.36140       -0.39120        2.17880
H          0.85350       -2.95280        1.19010
