16
gdb 14465	3.91426	2.22633	2.19336	1.7637	62.3	-0.2358	0.0986	0.3344	722.6692	0.132349	-383.735511	-383.729498	-383.728554	-383.765284	24.602
C         -0.00570        1.47160       -0.04380
C          0.00950       -0.02000        0.01750
O          0.17380       -0.69140       -1.22700
C          0.05980       -2.02880       -0.76010
C          1.15260       -2.11900        0.32780
C          0.62980       -0.91290        1.09330
C         -0.87500       -0.93910        0.82580
O         -1.15160       -2.04740       -0.01120
H          0.95490        1.86120       -0.39610
H         -0.78900        1.82180       -0.72330
H         -0.19880        1.88950        0.94830
H          0.02970       -2.73880       -1.58180
H          1.09910       -3.05430        0.88910
H          2.15330       -1.97620       -0.08510
H          1.06570       -0.52890        2.00470
H         -1.66740       -0.66010        1.50450
