20
gdb 7494	3.7769	1.1826	1.08307	0.7855	71.02	-0.2511	0.0609	0.3121	1191.7591	0.175616	-386.121956	-386.112954	-386.11201	-386.155716	32.936
C         -0.04750        1.56650        0.07630
C         -0.00270        0.03640        0.09930
C         -1.38810       -0.59570       -0.07580
C         -1.38020       -2.12000       -0.08000
O         -0.55950       -2.53750       -1.14420
C         -1.15860       -2.77930        1.31030
O         -2.56000       -3.09380        1.41830
C         -2.78910       -2.76030        0.03540
H          0.95130        1.99570        0.20240
H         -0.45030        1.93580       -0.87340
H         -0.68250        1.95960        0.87830
H          0.65600       -0.33220       -0.69310
H          0.43730       -0.30100        1.04710
H         -2.06050       -0.25980        0.72330
H         -1.82860       -0.25820       -1.02320
H         -0.52660       -3.49990       -1.14770
H         -0.53180       -3.68350        1.26610
H         -0.81100       -2.14400        2.13240
H         -3.65850       -2.10640       -0.09810
H         -2.91070       -3.65520       -0.59420
