16
gdb 9126	6.98276	0.72936	0.66854	4.5913	73.14	-0.2562	-0.0461	0.2102	1644.2851	0.126965	-383.720964	-383.71116	-383.710215	-383.757346	32.227
C          0.09300        1.49530        0.00850
C         -0.07780       -0.02130        0.00250
C         -1.53450       -0.46040        0.01400
O         -2.46180        0.32110        0.02740
C         -1.74710       -1.89620        0.00810
C         -1.91590       -3.09130        0.00320
C         -2.09650       -4.53550       -0.00240
O         -3.47880       -4.85090        0.00920
H          1.15340        1.76170        0.00010
H         -0.38530        1.94550       -0.86490
H         -0.36910        1.93660        0.89510
H          0.39820       -0.47880       -0.87560
H          0.41450       -0.48750        0.86680
H         -1.59270       -4.94520       -0.89370
H         -1.57570       -4.95430        0.87470
H         -3.55700       -5.81050        0.00420
