20
gdb 9683	5.00575	1.05143	0.99463	1.9832	72.23	-0.2389	0.0637	0.3027	1254.6095	0.175076	-386.124189	-386.114685	-386.113741	-386.158197	34.912
C          0.28650        1.44810        0.22360
C         -0.20890        0.05170       -0.16830
C          0.53910       -0.51920       -1.35650
C          1.88620       -1.20030       -1.16900
C          0.66120       -1.99930       -1.55670
O          0.06630       -2.81090       -0.58210
C          0.55770       -2.59440       -2.93670
O          1.18740       -3.87550       -2.87840
H          1.34810        1.42780        0.49180
H          0.16870        2.15860       -0.60250
H         -0.27070        1.83940        1.08060
H         -0.11210       -0.63580        0.67710
H         -1.28040        0.09430       -0.40280
H          0.43680        0.06540       -2.26960
H          2.67050       -1.03880       -1.90080
H          2.23060       -1.32930       -0.14830
H          0.43920       -3.69050       -0.72300
H         -0.50250       -2.69610       -3.21150
H          1.04620       -1.94200       -3.67530
H          0.87710       -4.40180       -3.62020
