16
gdb 8706	3.03573	1.59704	1.32673	1.0435	56.86	-0.2508	-0.0435	0.2073	954.1745	0.128378	-458.00838	-457.999646	-457.998702	-458.041433	31.659
O          0.01290        1.29940       -0.38710
C          0.07680       -0.07840       -0.04810
C         -1.34020       -0.64220        0.09200
O         -2.11500       -0.28400       -1.05720
C         -1.38530       -2.17010        0.17480
O         -2.71340       -2.64980        0.15230
C         -2.07500        0.00370        1.27250
O         -1.66750        0.97390        1.87080
H         -0.31630        1.74280        0.40790
H          0.58990       -0.58200       -0.87320
H          0.65000       -0.24650        0.87300
H         -1.79110        0.59380       -1.31280
H         -0.79150       -2.57770       -0.65860
H         -0.93540       -2.51640        1.11180
H         -3.12290       -2.27050       -0.63500
H         -3.05610       -0.45200        1.50590
