16
gdb 10284	2.67905	1.65178	1.1856	2.7425	66.06	-0.2483	-0.0435	0.2048	1043.9454	0.128301	-379.939295	-379.930016	-379.929071	-379.973716	31.572
C          0.20580        1.47430        0.16330
N         -0.24840        0.16210       -0.27690
C          0.50490       -0.44780       -1.34230
C          1.97890       -0.45820       -1.14670
N          3.12000       -0.45580       -0.95710
C          0.06090       -1.93160       -1.51510
C          0.39150       -2.57880       -2.83670
O         -0.50770       -2.48980       -0.61330
H          1.24920        1.49890        0.51520
H          0.11190        2.19180       -0.65980
H         -0.44280        1.81390        0.97460
H         -0.33150       -0.50090        0.48590
H          0.31890        0.08270       -2.28700
H          1.43590       -2.39510       -3.10820
H          0.19720       -3.65020       -2.78540
H         -0.23080       -2.13450       -3.62280
