16
gdb 15782	4.64137	1.19301	1.04398	1.9328	66.31	-0.2567	0.0529	0.3096	1111.4154	0.127964	-383.67296	-383.664358	-383.663414	-383.706708	30.895
O          0.97300        1.51570       -0.41410
C          0.01470        0.59670        0.08400
C         -0.12850       -0.63870       -0.83240
C         -0.40330       -0.28640       -2.21800
C         -0.64710       -0.00130       -3.35930
C          0.37600        0.24720        1.51640
C          0.18660       -1.05750        2.16050
O          1.47490       -0.66210        1.68150
H          1.83600        1.08730       -0.36050
H         -0.93310        1.14700        0.08700
H          0.79370       -1.22960       -0.76280
H         -0.93740       -1.27650       -0.45520
H         -0.85400        0.25390       -4.36880
H          0.43950        1.12590        2.15950
H          0.08760       -1.10300        3.24400
H         -0.27770       -1.88070        1.62250
