14
gdb 257	7.4514	2.03598	1.73685	4.1216	51.48	-0.2748	0.0115	0.2863	712.2912	0.117552	-307.60208	-307.594822	-307.593878	-307.634011	24.383
C         -0.00080        1.67800        0.06810
C         -0.05480        0.15790       -0.02970
C          0.61400       -0.54900        1.14350
O         -1.44430       -0.23910       -0.05720
C         -1.91020       -0.88750       -1.13670
O         -3.04410       -1.24990       -1.23940
H          1.03820        2.01990        0.09520
H         -0.49530        2.14110       -0.79010
H         -0.50180        2.01920        0.97880
H          0.41400       -0.16640       -0.96930
H          0.13000       -0.26820        2.08350
H          0.54660       -1.63470        1.03330
H          1.67080       -0.27160        1.20130
H         -1.13330       -1.04620       -1.91170
