13
gdb 4699	6.19237	1.34454	1.10468	1.9204	73.17	-0.1839	0.0092	0.1932	993.8452	0.095486	-361.468157	-361.460805	-361.45986	-361.499376	27.915
O          0.08260        1.31780        0.25190
C          0.06740       -0.01310        0.00760
C          0.05990       -0.75980       -1.15310
C          0.04370       -2.12230       -0.75350
C          0.04180       -2.17260        0.62840
N          0.05670       -0.85090        1.07510
C          0.02840       -3.25540        1.52300
C          0.01700       -4.17420        2.30500
H          0.08920        1.78220       -0.59050
H          0.06530       -0.37280       -2.16010
H          0.03430       -2.98410       -1.40170
H          0.05910       -0.55960        2.03750
H          0.00690       -4.99060        2.98300
