16
gdb 9969	2.68297	1.71448	1.50156	3.3202	56.61	-0.2401	0.0402	0.2803	911.6926	0.128083	-457.969352	-457.960564	-457.95962	-458.002614	32.437
O          0.02970        1.33000       -0.24710
C          0.00100       -0.00640        0.25620
C         -1.39700       -0.56080        0.13740
O         -2.35110        0.16110        0.86160
C         -1.86540       -1.13180       -1.18980
O         -0.89360       -1.22850       -2.20730
C         -1.66620       -2.03830        0.01370
O         -0.61040       -2.94910       -0.02360
H         -0.05700        1.26580       -1.20510
H          0.73340       -0.64640       -0.24440
H          0.27040        0.06310        1.31430
H         -2.18890        1.09020        0.64740
H         -2.87270       -0.88020       -1.51280
H         -1.21890       -1.84240       -2.87550
H         -2.54230       -2.42290        0.52780
H         -0.16720       -2.81600       -0.87250
