15
gdb 14718	11.786	0.59256	0.57025	5.0275	76.82	-0.2758	-0.0404	0.2353	1829.9087	0.117475	-362.640817	-362.631884	-362.63094	-362.675337	29.714
C         -0.04960        1.37420        0.07170
O          0.00450       -0.03370        0.00420
C          0.65560       -0.50370       -1.14820
C          0.63480       -2.03800       -1.07510
C          1.28090       -2.66000       -2.21560
C          1.82350       -3.15770       -3.17360
C          2.43580       -3.72330       -4.25460
N          2.95770       -4.20260       -5.17530
H          0.95700        1.81920        0.09160
H         -0.59950        1.80130       -0.78090
H         -0.57060        1.63390        0.99570
H          0.14550       -0.16280       -2.06350
H          1.69540       -0.14250       -1.19610
H          1.12830       -2.35360       -0.14820
H         -0.40700       -2.37350       -1.00710
