20
gdb 11914	4.56338	1.43663	1.25419	1.5368	75.26	-0.2218	0.0872	0.309	1046.428	0.177452	-349.002046	-348.994082	-348.993138	-349.035165	30.602
C         -0.23010        1.49670       -0.03090
C          0.08310        0.00510        0.03930
C          0.92990       -0.53000       -1.12350
O          1.45500       -1.76880       -0.67150
C          1.64690       -1.68560        0.73150
C          1.67830       -2.99100        1.46350
C          2.95350       -2.17990        1.28120
C          0.94750       -0.42740        1.24100
H          0.69120        2.09000       -0.05980
H         -0.81340        1.74050       -0.92540
H         -0.80890        1.82250        0.83920
H         -0.85400       -0.56490        0.05890
H          0.35830       -0.71880       -2.03700
H          1.74070        0.17940       -1.36470
H          1.23230       -3.04530        2.45140
H          1.57310       -3.88890        0.86460
H          3.67760       -2.55210        0.56510
H          3.37890       -1.67860        2.14520
H          1.68020        0.35510        1.47430
H          0.35940       -0.60980        2.14420
