16
gdb 12035	3.80408	1.75211	1.52253	4.2687	68.24	-0.2551	0.0277	0.2828	870.5603	0.130954	-342.750298	-342.742965	-342.742021	-342.781579	27.796
C         -0.07400        1.57240        0.02290
C          0.03700        0.04300        0.02430
C          1.13940       -0.64670       -0.85850
N          1.71930       -1.38460        0.31410
C          2.18700       -0.34300        1.24330
C          0.74390       -0.64440        1.21090
C         -1.27720       -0.54890       -0.21860
N         -2.32440       -1.00050       -0.40890
H          0.90020        2.02970        0.20940
H         -0.44200        1.92940       -0.94340
H         -0.76900        1.91180        0.79630
H          0.73920       -1.34510       -1.59320
H          1.84160        0.03860       -1.34440
H          2.75110       -0.74460        2.07920
H          2.57500        0.59090        0.84350
H          0.22280       -1.13800        2.02410
