12
gdb 21851	3.65688	1.95746	1.27498	2.7241	66.92	-0.2167	-0.0196	0.1971	865.8826	0.084489	-377.504606	-377.49759	-377.496646	-377.535653	26.247
O          0.10440        1.37660        0.12940
C          0.05950        0.02870        0.04320
C          0.02510       -0.76500       -1.10150
N         -0.01350       -2.05580       -0.63330
N         -0.00700       -2.13430        0.69710
C          0.03770       -0.87080        1.12460
C          0.02770       -0.39030       -2.45410
C          0.03160       -0.02720       -3.60450
H          0.10990        1.74150       -0.76370
H         -0.04470       -2.89650       -1.18470
H          0.05260       -0.64530        2.17940
H          0.03480        0.28240       -4.62040
