21
gdb 10339	2.17762	1.57986	1.1397	3.2983	75.11	-0.2399	0.0365	0.2764	1175.859	0.186933	-366.312956	-366.302437	-366.301493	-366.349456	36.57
C          0.24430        1.41890       -0.29880
C          0.04360       -0.09730       -0.21850
C         -1.40560       -0.53880        0.09580
C         -2.39850       -0.19290       -1.02650
C         -3.85590       -0.50020       -0.66850
C         -1.39070       -2.05530        0.31560
N         -1.47090       -2.46280        1.61640
O         -1.27320       -2.84470       -0.60360
H          1.29950        1.65790       -0.46450
H         -0.32450        1.86750       -1.11810
H         -0.06470        1.91150        0.63030
H          0.34960       -0.57300       -1.15700
H          0.70580       -0.50160        0.55750
H         -1.72500       -0.03860        1.02190
H         -2.30390        0.86840       -1.27820
H         -2.10850       -0.76500       -1.91420
H         -3.99740       -1.56570       -0.46160
H         -4.17750        0.06120        0.21670
H         -4.52640       -0.23220       -1.49070
H         -1.63730       -1.82240        2.37160
H         -1.46050       -3.45130        1.80930
