11
gdb 21814	7.35904	1.20576	1.1295	2.527	52.93	-0.2964	-0.0688	0.2276	968.3047	0.071152	-426.843748	-426.836814	-426.83587	-426.877919	22.168
O         -0.20050        0.19500        0.64610
C         -0.00470        1.06930       -0.14760
C          1.32220        1.84110       -0.17970
N          1.33160        2.88590       -1.18270
N          1.82580        2.74100       -2.40520
N          1.58590        3.86730       -3.00080
N          0.94310        4.68950       -2.14700
N          0.77950        4.07960       -1.01420
H         -0.75260        1.38130       -0.90680
H          1.50020        2.29240        0.79860
H          2.13720        1.15100       -0.40740
