15
gdb 11275	5.31454	1.36955	1.1615	1.2715	71.4	-0.2463	-0.0294	0.217	1019.985	0.118341	-362.646305	-362.638574	-362.637629	-362.678834	27.92
C          0.04300        1.52680        0.02440
C         -0.00050       -0.00040       -0.00400
C          0.78260       -0.63450       -1.18820
O          1.72590       -1.52940       -0.55930
C          1.53860       -1.37040        0.78210
N          0.63460       -0.57510        1.19560
C          2.40330       -2.14080        1.61230
C          3.13640       -2.79330        2.30480
H          1.07850        1.88200        0.04470
H         -0.44840        1.94390       -0.86100
H         -0.46530        1.90560        0.91450
H         -1.04920       -0.32210       -0.01480
H          0.15840       -1.21970       -1.86800
H          1.34680        0.10430       -1.76730
H          3.78040       -3.36720        2.92490
