18
gdb 18288	3.19376	2.04395	1.7453	1.5869	72.3	-0.2278	0.0102	0.238	837.8447	0.156067	-347.799169	-347.792152	-347.791207	-347.83013	28.024
O         -0.04930        1.43850        0.08330
C         -0.01600        0.04550        0.03510
C         -1.30140       -0.75760        0.02490
C         -2.62480        0.00230       -0.00330
C         -3.23890        0.12530       -1.41220
C         -2.21050        0.45080       -2.46910
C         -0.93660        0.05600       -2.38090
C         -0.42140       -0.70610       -1.21680
H         -0.40660        1.75430       -0.75660
H          0.82280       -0.33880        0.60720
H         -1.29340       -1.68810        0.58320
H         -3.34000       -0.48070        0.66890
H         -2.45500        1.01010        0.39340
H         -3.73880       -0.81430       -1.69060
H         -4.02650        0.88740       -1.40750
H         -2.54770        0.99340       -3.34890
H         -0.23510        0.28750       -3.17940
H          0.16980       -1.58540       -1.45860
