14
gdb 20566	4.71292	1.40227	1.38012	3.0156	59.63	-0.2774	-0.0436	0.2338	924.8796	0.106135	-415.834972	-415.827416	-415.826472	-415.867365	26.962
C          0.02210        1.58610        0.10080
C          0.02980        0.06190       -0.06160
O          0.80850       -0.57930        0.93770
C         -1.36380       -0.50050       -0.08890
C         -2.10380       -1.15530       -1.02360
N         -3.32390       -1.42970       -0.45100
N         -3.37510       -1.00670        0.72640
O         -2.10140       -0.37770        1.01400
H          1.05190        1.94990        0.13120
H         -0.50110        2.06880       -0.73020
H         -0.48170        1.87100        1.02990
H          0.50800       -0.20240       -1.00990
H          0.39230       -0.40890        1.79080
H         -1.86400       -1.44710       -2.03130
