18
gdb 18167	3.57028	1.74267	1.48764	2.5443	67.52	-0.2382	0.072	0.3102	915.5523	0.153842	-384.894663	-384.88693	-384.885985	-384.926528	29.478
C          0.08710        1.22010       -0.24040
O         -0.00960       -0.06950        0.33090
C         -1.27370       -0.68270        0.13200
C         -1.60750       -1.27260       -1.28260
C         -1.74890       -2.65230       -0.63410
C         -0.45710       -3.01740        0.03640
O          0.79570       -2.66430       -0.46790
C         -1.36490       -2.06650        0.75540
H          1.08160        1.60670       -0.00680
H         -0.03940        1.19650       -1.33210
H         -0.66840        1.89860        0.18330
H         -2.06680       -0.00710        0.47960
H         -2.53390       -0.87240       -1.69790
H         -0.80860       -1.19760       -2.02570
H         -2.51450       -3.38160       -0.86830
H         -0.45050       -4.01860        0.46220
H          0.96360       -1.75200       -0.19500
H         -1.76440       -2.27040        1.74180
