15
gdb 4106	3.36099	1.80802	1.24684	1.0771	68.56	-0.2288	-0.0349	0.194	935.1055	0.11893	-399.768959	-399.761388	-399.760444	-399.801327	28.038
O         -0.05030        1.31560       -0.04500
N          0.02620       -0.08520       -0.00650
C         -1.13010       -0.62770        0.02740
C         -2.47030       -0.05650        0.04380
C         -3.38160       -1.04050        0.02380
C         -2.76270       -2.41420       -0.01330
C         -1.23830       -2.15170        0.00700
O         -0.64150       -2.71590       -1.14910
H          0.87770        1.57260       -0.04540
H         -2.66350        1.00650        0.05790
H         -4.45570       -0.89020        0.02600
H         -3.09390       -3.03340        0.82800
H         -3.02420       -2.95610       -0.92960
H         -0.77920       -2.56890        0.91490
H          0.21090       -2.27710       -1.25690
