18
gdb 14171	3.80395	1.72557	1.70904	1.2099	72.59	-0.216	0.0204	0.2364	864.919	0.153913	-347.800764	-347.793354	-347.79241	-347.8317	29.738
C         -0.10730        1.57400        0.06000
C          0.03320        0.07350       -0.02260
O         -1.11220       -0.62070        0.41380
C          0.68920       -0.65340       -1.15840
C          1.64190        0.08750       -2.09870
C          2.78870        0.50100       -1.19790
C          2.62470        0.06760        0.05570
C          1.34590       -0.67330        0.22830
H          0.80280        2.09050       -0.24870
H         -0.93620        1.91020       -0.57160
H         -0.32780        1.87900        1.09110
H         -1.23840       -0.41680        1.34750
H          0.15600       -1.52380       -1.52100
H          1.98360       -0.56330       -2.91450
H          1.16660        0.95290       -2.58020
H          3.62000        1.10040       -1.55170
H          3.31690        0.24190        0.87220
H          1.28810       -1.54360        0.87360
