17
gdb 20548	4.39591	1.35454	1.33758	2.8088	69.56	-0.2606	-0.0056	0.255	1005.4811	0.142184	-363.869282	-363.861448	-363.860504	-363.90199	28.693
C          0.13860        1.58590       -0.05670
C          0.03600        0.05260        0.01960
C          0.53260       -0.60880       -1.27770
C          0.77620       -0.48000        1.21610
N          0.12610       -1.12300        2.15810
O          1.08000       -1.48080        3.11130
C          2.27720       -1.03790        2.70640
C          2.17100       -0.39530        1.51810
H          1.17670        1.90760       -0.19550
H         -0.44330        1.96500       -0.90270
H         -0.24030        2.05410        0.85610
H         -1.01550       -0.21750        0.16560
H          1.58670       -0.37510       -1.46360
H          0.43150       -1.69680       -1.23130
H         -0.04490       -0.24750       -2.13450
H          3.10580       -1.25380        3.36340
H          2.95540        0.06750        0.94310
