22
gdb 8405	3.44416	1.57992	1.36733	0.0893	82.64	-0.2458	0.0862	0.332	1040.7934	0.199493	-313.056286	-313.047451	-313.046507	-313.08921	33.936
C         -0.06140        1.51810        0.04390
C         -0.02050        0.00170        0.02640
C         -1.26460       -0.65180       -0.54510
C          1.31510       -0.66920       -0.23010
C          0.70120       -0.70220        1.14540
C          1.33130       -0.10750        2.41560
C          1.22320       -1.51490        3.07270
C          0.29630       -1.97400        1.90900
H          0.85090        1.94230        0.47350
H         -0.16940        1.91980       -0.97080
H         -0.90940        1.88530        0.63490
H         -1.42590       -0.34620       -1.58590
H         -1.19270       -1.74320       -0.52700
H         -2.15870       -0.36780        0.02340
H          1.32390       -1.58900       -0.80880
H          2.18460       -0.03670       -0.38740
H          2.33580        0.31490        2.32220
H          0.68970        0.63490        2.90220
H          2.17870       -2.04500        3.07390
H          0.80380       -1.55590        4.08040
H         -0.76180       -1.98270        2.19170
H          0.53480       -2.93310        1.44050
