10
gdb 23624	4.26558	1.87499	1.30247	3.8483	50.92	-0.2656	-0.0543	0.2113	803.3503	0.060739	-458.603589	-458.597729	-458.596784	-458.63397	21.268
F          0.09700        0.05540        0.00180
C         -0.05580        1.35380        0.01120
C         -1.22770        1.99610        0.03080
C         -1.22870        3.46130        0.03920
O         -2.22640        4.13950        0.05590
N          0.07050        4.07030        0.02440
C          1.09880        3.33910        0.00620
O          1.13880        1.96360       -0.00180
H         -2.16000        1.44990        0.04040
H          2.11170        3.72830       -0.00560
