19
gdb 14974	4.45022	1.43249	1.15271	2.3149	72.4	-0.2443	0.029	0.2733	1068.8697	0.16705	-365.088566	-365.080659	-365.079715	-365.120956	29.435
C         -0.06190        1.56150        0.01950
C         -0.01400        0.03160       -0.01770
C          0.75260       -0.52710       -1.21040
C          0.85150       -2.04990       -1.23670
C          1.51760       -2.49140       -2.54400
N          0.97010       -1.82300       -3.72180
C          0.32560       -0.75030       -3.54610
O          0.08300       -0.06180       -2.40420
H          0.94580        1.98700        0.08340
H         -0.53630        1.95720       -0.88190
H         -0.62790        1.91340        0.88680
H          0.46120       -0.35330        0.89310
H         -1.03130       -0.37780       -0.04000
H          1.76620       -0.09840       -1.22740
H          1.41320       -2.40230       -0.36520
H         -0.15840       -2.47270       -1.17030
H          2.59910       -2.30200       -2.50800
H          1.40550       -3.57180       -2.68710
H         -0.14090       -0.23870       -4.38670
