19
gdb 10195	2.96963	1.20267	0.90178	4.7466	73.75	-0.2335	0.0325	0.266	1303.4457	0.16543	-361.231377	-361.221787	-361.220843	-361.266008	33.362
C         -0.13210        1.48870       -0.02140
N          0.14370        0.05700        0.04810
C          0.67860       -0.49470       -1.18950
C          0.67080       -2.03500       -1.10890
N         -0.69470       -2.50580       -0.94480
C         -0.80630       -3.90040       -0.53890
C          1.27480       -2.60510       -2.32620
N          1.76750       -3.04740       -3.27290
H          0.73860        2.10110       -0.31140
H         -0.92590        1.67040       -0.75340
H         -0.48760        1.83770        0.95200
H          0.79650       -0.12240        0.80530
H          0.02090       -0.19440       -2.01200
H          1.69520       -0.14530       -1.43370
H          1.33140       -2.33710       -0.26930
H         -1.12350       -1.88900       -0.26110
H         -0.43410       -4.54970       -1.33810
H         -0.24740       -4.14610        0.38200
H         -1.85980       -4.14270       -0.37620
