14
gdb 3266	3.67442	3.59191	1.95586	1.4732	54.72	-0.2473	0.0129	0.2602	640.4185	0.115789	-361.709769	-361.703805	-361.70286	-361.739673	21.891
C         -0.01670        1.34010       -0.05100
C          1.29600        2.10670        0.07900
N          2.09220        1.90700        1.27510
C          2.28110        0.80020        1.84640
O          1.77990       -0.44860        1.61970
C          0.44680       -0.62020        1.14460
O          0.17860       -0.06670       -0.09390
H         -0.69290        1.59610        0.78000
H         -0.50730        1.61230       -0.99050
H          1.92630        1.85540       -0.78580
H          1.07100        3.17730       -0.00100
H          3.00630        0.74230        2.65860
H          0.32730       -1.70070        1.05450
H         -0.23840       -0.21360        1.90660
