17
gdb 19794	2.98806	2.613	1.84277	2.571	65.78	-0.2336	0.0644	0.2981	766.2493	0.144977	-363.822862	-363.81646	-363.815516	-363.853074	26.422
O          0.06940        1.41830       -0.04650
C          0.01670        0.00640        0.02970
C         -1.40080       -0.60070        0.04770
C         -2.34920       -0.32820       -1.09390
C         -1.53040       -1.59410       -1.08850
C         -0.21160       -1.57220       -1.84080
N          0.14100       -0.25910       -2.43690
C          0.73470       -0.66970       -1.14590
H         -0.16120        1.63680       -0.95850
H          0.52260       -0.25790        0.96440
H         -1.83620       -0.80330        1.01980
H         -3.40760       -0.41940       -0.87430
H         -2.09940        0.42780       -1.82740
H         -2.01770       -2.55390       -0.96290
H          0.11890       -2.47050       -2.35090
H          0.81760       -0.39080       -3.18400
H          1.80430       -0.84590       -1.09330
