15
gdb 19460	4.06767	1.84017	1.70715	2.2476	63.87	-0.2713	0.013	0.2844	794.3989	0.121262	-362.656211	-362.649952	-362.649008	-362.686603	24.334
N         -0.11580       -1.24250       -0.14210
C         -0.07700       -0.08840       -0.08070
C         -0.00940        1.35820        0.01600
C         -0.04330        2.08230        1.39780
C          1.05020        1.38210        2.22610
C          2.17050        1.40260        1.13580
C          1.35910        2.10790        0.03300
O          0.68780        3.17440        0.76640
H         -0.69720        1.83630       -0.68190
H         -0.97830        2.37930        1.87000
H          1.30430        1.97240        3.10790
H          0.76740        0.37530        2.54110
H          3.03390        2.00390        1.42470
H          2.51180        0.40720        0.84340
H          1.85060        2.43090       -0.88310
