16
gdb 16535	3.02272	2.30363	1.82126	2.5447	59.59	-0.243	0.0423	0.2853	776.5158	0.130979	-420.824561	-420.817457	-420.816513	-420.855945	27.144
O          0.23200        1.30260       -0.33620
C          0.02960       -0.06650       -0.11510
C          0.21920       -0.48740        1.38840
O          0.67550        0.53260        2.24690
C         -1.29040       -0.77850        1.49080
O         -2.07630        0.39790        1.75270
C         -2.43970        0.52930        0.35230
C         -1.45540       -0.57100       -0.04720
H          0.28230        1.70370        0.54460
H          0.64320       -0.62780       -0.82710
H          0.80700       -1.40890        1.49020
H          1.63820        0.52410        2.24340
H         -1.62180       -1.64310        2.07310
H         -3.49490        0.27510        0.19310
H         -2.23140        1.52880       -0.04030
H         -1.76180       -1.33790       -0.75610
