18
gdb 19080	5.86155	1.40627	1.36772	2.094	73.75	-0.1888	0.066	0.2548	988.5598	0.152454	-343.857239	-343.84982	-343.848876	-343.888258	29.379
C         -0.22310        1.22240       -0.11190
N          0.10130       -0.19410        0.03290
C          1.54640       -0.45630       -0.08180
C          0.88480       -0.47190        1.24920
C          1.15000       -2.00910        1.36290
C          1.81100       -1.99360        0.03160
N          0.53320       -2.70250        0.21880
C          0.70220       -4.15150        0.28600
H          0.54780        1.91000        0.27920
H         -0.37130        1.44500       -1.17330
H         -1.16060        1.42650        0.41480
H          2.21670        0.27340       -0.51840
H          0.93460        0.24330        2.06070
H          1.41540       -2.54300        2.26670
H          2.69630       -2.51310       -0.31310
H          1.64830       -4.48000        0.75200
H         -0.12640       -4.57840        0.85980
H          0.66240       -4.56010       -0.72870
