18
gdb 2859	6.1689	1.32221	1.25246	2.2365	64.41	-0.2465	0.0719	0.3185	1010.3691	0.160187	-326.949224	-326.941088	-326.940144	-326.982033	29.153
C         -0.13860        1.46390       -0.47430
C          0.01550        0.12280        0.25250
C         -1.30440       -0.60800        0.36660
N         -1.75680       -1.37770       -0.80810
C         -1.47730       -2.08330        0.46200
C         -0.36250       -3.10130        0.37790
O         -0.73830       -4.18760       -0.45270
H          0.82020        1.98470       -0.55330
H         -0.52600        1.30950       -1.48620
H         -0.83440        2.12530        0.05440
H          0.73610       -0.50040       -0.28460
H          0.42100        0.28610        1.25940
H         -2.07230       -0.02870        0.88180
H         -2.75780       -1.27240       -0.94470
H         -2.34290       -2.43040        1.02450
H          0.56260       -2.63050        0.01850
H         -0.15790       -3.52310        1.36780
H         -1.00530       -3.78970       -1.29030
