16
gdb 9931	3.18078	1.56592	1.42074	6.0689	66.44	-0.2488	0.0224	0.2712	947.918	0.129891	-379.912291	-379.903785	-379.90284	-379.944891	31.234
C         -0.02530        1.53310        0.10370
C          0.02500        0.02830       -0.02910
C          0.68540       -0.67270       -1.19290
N          1.43790        0.10150       -2.14440
C          1.34370       -0.71000        0.19750
O          2.50680        0.03170        0.33630
C          1.33250       -1.94620        0.93860
N          1.28570       -2.94430        1.52190
H          0.94830        1.98350       -0.09580
H         -0.76100        1.96610       -0.58300
H         -0.31660        1.81140        1.12060
H         -0.85170       -0.49370        0.34320
H          0.21650       -1.58980       -1.54050
H          1.82890       -0.48770       -2.86990
H          0.87480        0.81850       -2.58820
H          2.71280        0.33000       -0.56980
