16
gdb 17634	3.31758	1.63875	1.32343	3.0999	61.11	-0.264	-0.0289	0.2351	954.1431	0.127853	-420.868579	-420.860135	-420.859191	-420.902184	29.866
C          0.04510        1.31750        0.29860
C         -0.00470       -0.15780       -0.01010
O          0.98970       -0.83620       -0.14450
C         -1.37920       -0.83830       -0.14850
O         -1.20190       -2.20170       -0.38890
C         -2.22840       -0.57170        1.09020
C         -2.89200       -1.66310        1.80800
O         -1.70120       -1.05650        2.32420
H          1.04510        1.70420        0.09870
H         -0.69950        1.87420       -0.27860
H         -0.18540        1.46480        1.36020
H         -1.89170       -0.35890       -1.00270
H         -0.23870       -2.33610       -0.36960
H         -2.66020        0.42930        1.14280
H         -3.80040       -1.45770        2.37230
H         -2.76700       -2.67530        1.43590
