20
gdb 7438	3.14668	1.6375	1.21335	3.1528	73.76	-0.226	0.0507	0.2767	1070.5864	0.175597	-382.344178	-382.334012	-382.333068	-382.37911	34.932
C         -1.85750        1.13370       -0.35480
N         -1.15700       -0.12510       -0.15930
C         -0.59770       -0.30290        1.17290
C         -0.56560       -0.67980       -1.29000
O         -0.49660       -0.07700       -2.34990
N         -0.05770       -1.96590       -1.13470
C          0.72780       -2.48260       -2.24370
C         -0.75460       -2.98520       -0.36360
H         -1.18460        1.99980       -0.27070
H         -2.30510        1.14890       -1.34730
H         -2.64140        1.23160        0.40410
H         -0.12210        0.62820        1.51450
H         -1.37220       -0.56990        1.90310
H          0.16270       -1.08240        1.16570
H          1.27130       -1.66510       -2.71460
H          1.43710       -3.22740       -1.86660
H          0.09920       -2.96040       -3.00960
H         -1.55250       -2.53700        0.22650
H         -1.20930       -3.72780       -1.03560
H         -0.07170       -3.51800        0.31030
