20
gdb 14726	10.63352	0.55125	0.53363	1.0912	82.22	-0.2423	0.0573	0.2995	2112.5371	0.174723	-348.974837	-348.964467	-348.963523	-349.011886	34.727
C         -0.13060        1.56810        0.05120
C          0.06890        0.04270       -0.01470
C          0.78710       -0.48940        1.13950
C          1.38470       -0.89350        2.10430
C          2.09870       -1.42400        3.25940
C          2.02070       -2.95200        3.34160
O          2.73660       -3.35730        4.48570
C          2.74580       -4.75340        4.65990
H          0.83260        2.08360        0.09590
H         -0.67090        1.92160       -0.83220
H         -0.70270        1.84670        0.94030
H         -0.90890       -0.44960       -0.09570
H          0.61090       -0.21490       -0.93390
H          3.15580       -1.13330        3.22690
H          1.69240       -1.00640        4.18880
H          0.96830       -3.27380        3.40110
H          2.44850       -3.40130        2.43050
H          3.32080       -4.96710        5.56420
H          1.72820       -5.15770        4.78180
H          3.21790       -5.26880        3.80830
