15
gdb 19501	3.41847	2.00216	1.82308	5.1981	64.84	-0.2643	0.0291	0.2934	783.8246	0.121023	-362.666132	-362.659522	-362.658577	-362.696985	24.816
N         -0.17270       -1.17560       -0.13320
C         -0.06220       -0.02770       -0.04200
C          0.01620        1.40660        0.03150
C          0.49580        2.14180        1.27510
C          1.28520        1.33560        2.29060
O          2.26030        0.62050        1.54170
C          2.58530        1.36290        0.37290
C          1.33920        2.15940        0.03110
H         -0.78740        1.89980       -0.50630
H         -0.07530        3.00030        1.60640
H          1.75280        2.02300        3.01360
H          0.69310        0.59850        2.84110
H          3.42100        2.05790        0.55300
H          2.88710        0.64450       -0.39510
H          1.42410        3.03170       -0.60520
