13
gdb 10590	3.09961	1.7886	1.32609	3.0803	60.58	-0.2875	-0.072	0.2155	906.7922	0.09263	-398.593002	-398.585043	-398.584099	-398.62534	27.696
C          0.14780        1.52910        0.02190
C          0.03950        0.03360        0.11610
O          1.19500       -0.74270       -0.14270
C          0.69860       -0.79060        1.19080
C          1.53470       -0.13490        2.26970
O          2.37180        0.69540        2.04530
C          0.06560       -2.03260        1.59360
N         -0.43360       -3.00860        1.95930
H          1.07910        1.88700        0.46040
H          0.12070        1.82000       -1.03330
H         -0.70340        2.00130        0.52190
H         -0.87900       -0.40620       -0.27650
H          1.29510       -0.48230        3.29550
