14
gdb 15327	3.25123	1.30277	0.98956	2.1408	72.96	-0.2459	0.0094	0.2552	1162.1806	0.103668	-345.316772	-345.308049	-345.307105	-345.352048	29.841
C          0.15530        1.52040        0.02130
C          0.08040        0.06830        0.01050
C          0.00590       -1.13350        0.01090
C         -0.04020       -2.56680       -0.01350
O         -0.49890       -3.25310        1.15950
C         -1.32010       -3.33160       -0.00990
C         -2.60220       -2.68520        0.02050
C         -3.69240       -2.17990        0.01850
H          1.19200        1.86610       -0.05320
H         -0.40310        1.95190       -0.81650
H         -0.26680        1.92620        0.94700
H          0.80550       -3.05480       -0.49920
H         -1.30720       -4.30810       -0.49470
H         -4.65140       -1.72360        0.02550
