13
gdb 6058	5.3725	0.84272	0.79366	3.2733	67.12	-0.2707	-0.0691	0.2016	1392.6312	0.092732	-398.617286	-398.608188	-398.607244	-398.652687	30.
C          0.25280        1.42000       -0.02930
C         -0.35650        0.03740        0.03460
O         -0.85090       -0.43410        1.03460
C         -0.31870       -0.71920       -1.20940
C         -0.29270       -1.34900       -2.23990
C         -0.32490       -2.06180       -3.51360
N          0.45300       -3.17960       -3.54040
O         -0.98300       -1.66310       -4.45310
H          1.29690        1.35810       -0.35460
H         -0.27720        2.02690       -0.77150
H          0.19190        1.89050        0.95290
H          0.88370       -3.53860       -2.70560
H          0.42270       -3.75620       -4.36600
