13
gdb 554	9.7226	2.37649	2.09674	4.1766	54.24	-0.3085	0.0282	0.3367	599.6434	0.109648	-249.362379	-249.35669	-249.355746	-249.391553	20.406
N         -0.56070       -0.98690       -0.65350
C         -0.29080        0.09000       -0.32950
C          0.06770        1.43100        0.09800
C         -0.04940        1.78920        1.61470
C          1.27110        2.59350        1.48110
C          1.58150        1.81170        0.17690
H         -0.47900        2.15700       -0.51070
H         -0.95240        2.31760        1.92450
H          0.07360        0.89970        2.23640
H          1.08400        3.65290        1.28550
H          1.99120        2.51200        2.29660
H          2.19660        0.92900        0.36470
H          1.99370        2.35820       -0.67280
