24
gdb 12280	3.55012	1.26128	1.0564	0.1282	85.28	-0.2744	0.0804	0.3548	1254.1362	0.222833	-314.275307	-314.265672	-314.264728	-314.309259	36.342
C         -0.07970        1.61960        0.08500
C          0.08260        0.10470       -0.08560
C          0.69970       -0.56170        1.13820
C         -0.10270       -0.62290        2.46740
C          0.52640       -2.01590        2.73850
C         -0.30150       -3.08890        3.43090
C          0.86570       -2.11840        1.21140
C         -0.12200       -2.92800        0.37270
H          0.88760        2.10370        0.26110
H         -0.52420        2.07690       -0.80450
H         -0.72550        1.85520        0.93790
H         -0.89630       -0.34190       -0.29900
H          0.70890       -0.09780       -0.96510
H          1.67600       -0.10020        1.33440
H          0.05940        0.16450        3.20840
H         -1.18030       -0.70080        2.28020
H          1.46400       -1.87960        3.29020
H         -1.25570       -3.26040        2.92220
H          0.23150       -4.04590        3.47070
H         -0.52820       -2.79580        4.46240
H          1.87880       -2.47500        0.99640
H         -1.16150       -2.62790        0.54130
H          0.08350       -2.81010       -0.69640
H         -0.04760       -3.99540        0.60650
