16
gdb 20547	4.51425	1.41139	1.40447	1.924	65.54	-0.2853	-0.0238	0.2615	959.1189	0.131839	-376.100937	-376.093268	-376.092324	-376.133632	27.416
C         -0.02510        1.54050        0.02630
C          0.03430        0.00250        0.00920
C          0.72540       -0.51790       -1.26390
C          0.72480       -0.51410        1.23490
N          0.15340       -1.29670        2.14610
N          1.15340       -1.46720        3.00270
N          2.27700       -0.84910        2.67450
N          2.02080       -0.23650        1.54920
H          0.98330        1.96440        0.03690
H         -0.54460        1.90940       -0.86350
H         -0.55680        1.90790        0.90900
H         -0.98720       -0.39080        0.04250
H          1.76420       -0.17730       -1.30440
H          0.72550       -1.61140       -1.29740
H          0.20700       -0.14900       -2.15420
H          1.06940       -2.02380        3.84000
