13
gdb 8966	5.79183	0.91515	0.79794	2.9117	65.56	-0.2789	-0.0926	0.1862	1307.2666	0.092567	-361.449128	-361.440623	-361.439679	-361.483089	28.894
O         -0.10950       -0.08800        0.00190
C         -0.02720        1.11400        0.00580
C          1.26240        1.89860       -0.00190
C          2.50330        0.99140       -0.01640
C          3.73810        1.76410       -0.02340
C          4.74120        2.42530       -0.02930
C         -1.25290        1.94470        0.01920
N         -2.20040        2.60720        0.02970
H          1.24960        2.57000       -0.87030
H          1.26450        2.56240        0.87250
H          2.47600        0.32680        0.85440
H          2.46110        0.33450       -0.89230
H          5.63800        2.99410       -0.03470
