17
gdb 12468	3.30365	1.88957	1.26705	3.6547	71.9	-0.2145	-0.0513	0.1632	945.2866	0.144377	-363.87791	-363.870604	-363.86966	-363.909918	27.617
O         -0.03130        0.76140        1.49240
C         -0.04760        1.40800        0.46080
C         -1.41090        1.86310       -0.08710
N         -1.56910        2.25110       -1.47340
C         -0.79790        3.40380       -1.90750
C          0.66070        3.13070       -2.29860
C          1.53490        2.42970       -1.30210
C          1.24330        1.73640       -0.19230
H         -2.10970        1.05400        0.14750
H         -1.71660        2.70950        0.54500
H         -1.43390        1.46220       -2.09540
H         -1.29710        3.86470       -2.76960
H         -0.82900        4.14450       -1.09920
H          0.68160        2.53640       -3.22710
H          1.14150        4.08050       -2.57330
H          2.59390        2.48440       -1.55500
H          2.07020        1.30450        0.36670
