15
gdb 20826	3.38214	1.81243	1.27792	2.0398	62.74	-0.2538	0.0002	0.254	937.263	0.119242	-399.802791	-399.795319	-399.794375	-399.834942	27.331
C          0.04730        1.54630        0.13240
C         -0.08620        0.02400       -0.04410
C          0.64410       -0.49620       -1.24390
C          0.17600       -1.03190       -2.40010
O          1.17390       -1.36690       -3.23440
N          2.38950       -1.04600       -2.62440
C          2.05620       -0.53960       -1.46360
O          2.97450       -0.11280       -0.57970
H          1.09760        1.83390        0.23250
H         -0.36760        2.07800       -0.72940
H         -0.48440        1.87970        1.02870
H          0.29580       -0.47500        0.85470
H         -1.14370       -0.25030       -0.12340
H         -0.82180       -1.23550       -2.75910
H          3.84750       -0.25840       -0.96830
