14
gdb 5137	6.09056	1.40047	1.14661	3.0567	68.03	-0.2188	0.0338	0.2526	979.1936	0.108259	-341.59178	-341.58458	-341.583635	-341.624388	26.399
C         -0.39760       -0.63510       -1.11320
C         -0.10970        0.17050       -0.26870
C          0.26870        1.15780        0.73670
C          1.52370        1.91460        0.38810
N          2.07220        2.85440        1.12570
C          3.18710        3.26120        0.42810
C          3.30910        2.55810       -0.74060
N          2.23380        1.69700       -0.75280
H         -0.67690       -1.35500       -1.84260
H         -0.55010        1.87360        0.88160
H          0.40770        0.66550        1.70740
H          3.83560        4.03570        0.80840
H          4.03020        2.58290       -1.54010
H          1.99430        1.02220       -1.46120
