14
gdb 20382	4.68697	2.0548	1.47291	4.2979	63.62	-0.2477	-0.0362	0.2115	803.2608	0.10891	-378.708335	-378.701988	-378.701044	-378.738885	23.601
C          0.02840        1.50220       -0.07660
C          1.52930        1.94740        0.05080
C          2.13330        0.72630        0.66120
C          1.29680       -0.34440        0.66430
C         -0.03940       -0.06380        0.05670
N          1.99240       -1.38910        1.20290
N          3.14720       -1.06180        1.52940
O          3.30100        0.42710        1.16200
H         -0.54160        1.95250        0.74020
H         -0.41700        1.85100       -1.01030
H          1.98560        2.15800       -0.92390
H          1.65000        2.84660        0.66130
H         -0.88620       -0.37750        0.67350
H         -0.15620       -0.54840       -0.91980
