14
gdb 10465	3.01364	1.65582	1.20621	3.9264	65.18	-0.2629	-0.0016	0.2613	978.3711	0.104153	-382.506584	-382.498553	-382.497609	-382.53937	28.785
O          0.11020        0.00500        0.12880
C          0.10920        1.19310        0.23220
O          1.09880        1.95980       -0.28880
C          0.97940        3.36420       -0.09340
C          1.41090        3.90380        1.25850
C          2.30760        4.05940        0.06040
C         -0.09070        3.98960       -0.81950
C         -0.99470        4.50110       -1.42490
H         -0.66890        1.78450        0.74650
H          0.88760        4.77260        1.63900
H          1.68670        3.16380        2.00110
H          3.17730        3.41680       -0.00800
H          2.41110        5.03700       -0.39330
H         -1.79020        4.95230       -1.96530
