15
gdb 13295	5.17699	1.30428	1.16373	1.475	67.5	-0.2475	0.0184	0.2659	1031.5186	0.11886	-362.645184	-362.637455	-362.636511	-362.678196	27.293
C         -0.52350       -0.66940       -0.95800
C         -0.13390        0.15800       -0.18010
C          0.33580        1.15300        0.77920
C          1.62870        1.80700        0.37380
N          2.70060        1.79900        1.05170
C          3.68070        2.58220        0.28220
C          2.92410        3.00330       -1.00520
O          1.59370        2.46880       -0.81170
H         -0.86760       -1.39770       -1.64970
H         -0.42510        1.93610        0.89610
H          0.49490        0.70030        1.76140
H          4.01620        3.44100        0.87330
H          4.56280        1.96990        0.06940
H          2.84130        4.08550       -1.13560
H          3.33760        2.56630       -1.91840
