13
gdb 1843	6.59864	2.09614	1.61117	5.8308	58.17	-0.2205	-0.0004	0.2201	720.0313	0.103848	-340.687222	-340.680857	-340.679913	-340.717088	24.108
N          0.06840        1.35080       -0.12430
C         -0.03510       -0.01300       -0.03400
C         -1.12390       -0.80580       -0.00510
C         -0.70070       -2.21880        0.01560
O         -1.37400       -3.22630       -0.03990
N          0.69380       -2.19620        0.12600
C          1.22130       -0.86080       -0.03180
H          0.92040        1.77010        0.21490
H         -0.75720        1.88550        0.09810
H         -2.16220       -0.50970       -0.00660
H          1.21510       -3.01040       -0.15500
H          1.77710       -0.72420       -0.97130
H          1.89330       -0.57470        0.79130
