15
gdb 18860	4.47137	2.22691	1.86971	1.8	63.41	-0.2272	-0.0097	0.2175	724.4876	0.121893	-358.783904	-358.777983	-358.777039	-358.813554	24.076
N          0.06530        1.36660        0.18780
C         -0.00330       -0.06730       -0.02180
C         -1.46750       -0.50870       -0.14630
C         -1.35740       -0.62250       -1.62610
C          0.20050       -0.60800       -1.49960
N          0.61010       -2.01470       -1.36180
C         -0.42640       -2.59980       -0.91720
N         -1.64400       -1.83180       -0.84010
H          1.01830        1.69240        0.05470
H         -0.51180        1.85560       -0.49170
H          0.62090       -0.56880        0.72460
H         -2.28400       -0.18940        0.49010
H         -2.01640       -0.33240       -2.43660
H          0.82820       -0.02660       -2.17190
H         -0.45830       -3.63920       -0.60840
