19
gdb 6378	4.68371	1.07834	0.98129	2.2656	69.89	-0.2479	0.0685	0.3164	1273.3787	0.163365	-402.256823	-402.246801	-402.245857	-402.292469	34.348
C         -0.12400        1.38130        0.08200
N         -0.04820       -0.04520       -0.14190
C          0.66730       -0.58730       -1.16390
O          1.31260        0.03540       -1.98130
O          0.54750       -1.93960       -1.13300
C          1.27110       -2.67040       -2.15280
C          2.72580       -2.84920       -1.72930
C          0.52840       -3.98660       -2.33330
H          0.49940        1.86400       -0.67150
H         -1.15060        1.75290       -0.01820
H          0.24870        1.65160        1.07680
H         -0.54610       -0.68120        0.45750
H          1.23210       -2.07770       -3.07100
H          3.27200       -3.41890       -2.48790
H          3.20910       -1.87650       -1.61710
H          2.78740       -3.39200       -0.78030
H         -0.51150       -3.80940       -2.62090
H          1.00670       -4.58410       -3.11500
H          0.53500       -4.56720       -1.40520
