17
gdb 5225	6.61231	1.09154	0.99985	1.4153	70.46	-0.2355	0.0088	0.2443	1194.2203	0.143201	-363.906862	-363.899089	-363.898145	-363.939958	27.799
C         -0.12750        1.53060        0.06990
C         -0.07490        0.00170        0.05970
C          0.84450       -0.56030        1.16170
C          0.90200       -2.04780        1.18000
N          1.90130       -2.82560        0.90010
C          1.40140       -4.11330        1.05840
C          0.10420       -4.04180        1.43050
O         -0.23470       -2.71950        1.51360
H          0.86640        1.96330       -0.08890
H         -0.78510        1.90800       -0.71890
H         -0.50400        1.90830        1.02710
H         -1.08210       -0.40910        0.19280
H          0.28020       -0.35470       -0.91440
H          1.86800       -0.20140        1.02370
H          0.49890       -0.19940        2.13890
H          2.01350       -4.98570        0.89360
H         -0.66860       -4.75380        1.66270
