15
gdb 4139	3.34527	1.82238	1.45502	1.1243	65.15	-0.2463	0.0225	0.2688	875.438	0.11863	-399.69203	-399.684932	-399.683988	-399.723226	27.515
O         -0.17010        1.37830        0.07280
N          0.00530       -0.02970        0.07230
C         -1.10530       -0.62330        0.00510
C         -2.61480       -0.41650       -0.01940
C         -2.62810       -1.59230       -1.05330
C         -1.58730       -2.06110        0.01720
C         -2.62840       -1.54620        1.08160
O         -2.23900       -1.28020        2.38760
H          0.74130        1.68850        0.09910
H         -3.17580        0.51370       -0.04340
H         -3.55420       -2.17150       -1.09800
H         -2.23450       -1.36940       -2.04440
H         -0.99860       -2.97530        0.03480
H         -3.55620       -2.12100        1.12850
H         -1.40630       -0.79070        2.36920
