18
gdb 9044	4.59312	0.90459	0.78806	0.6427	80.28	-0.2566	0.0425	0.2992	1419.7457	0.150413	-310.606869	-310.597294	-310.59635	-310.641374	34.655
C          0.10960        1.57970        0.01380
C          0.00640        0.04110       -0.02980
C         -1.45400       -0.47080        0.00740
C         -2.19200       -0.13410        1.31960
C         -3.53510       -0.69920        1.36150
C         -4.63990       -1.17240        1.37070
C          0.68570       -0.48360       -1.21390
C          1.22610       -0.90590       -2.20130
H          1.15370        1.89550       -0.05150
H         -0.43160        2.02470       -0.82680
H         -0.30620        1.97770        0.94340
H          0.52200       -0.35800        0.85630
H         -2.00610       -0.05210       -0.84090
H         -1.45160       -1.55630       -0.12710
H         -1.61070       -0.51050        2.17240
H         -2.25750        0.95240        1.45150
H         -5.61710       -1.58690        1.38950
H          1.71110       -1.28480       -3.06650
