11
gdb 21974	5.45754	1.65359	1.26907	3.8849	55.97	-0.2652	-0.082	0.1832	847.0352	0.072927	-434.478256	-434.47222	-434.471276	-434.508961	21.706
O         -0.04380        0.00150        0.00360
N         -0.02160        1.22700        0.00680
O          0.98950        1.92220        0.00240
C         -1.28800        1.90480        0.01680
C         -1.45540        3.25740        0.02180
O         -2.77030        3.53590        0.03080
C         -3.44750        2.34540        0.03180
C         -2.58370        1.30200        0.02350
H         -0.76540        4.08270        0.01970
H         -4.52130        2.42430        0.03890
H         -2.80380        0.24840        0.02200
