13
gdb 4308	3.88212	1.98287	1.32322	5.7504	63.34	-0.26	-0.0704	0.1896	866.3268	0.095537	-398.662078	-398.655174	-398.654229	-398.693635	24.865
C         -0.02550        1.50420        0.00730
C          0.00300        0.00290       -0.00010
N         -0.03140       -0.60110       -1.15640
C         -0.00840       -1.97500       -1.22940
O         -0.03520       -2.63850       -2.21990
O          0.05490       -2.70320        0.01010
C          0.08850       -2.05430        1.16740
C          0.06590       -0.70820        1.24470
H          0.86660        1.89870        0.50690
H         -0.07100        1.88380       -1.01310
H         -0.89240        1.86480        0.57250
H          0.13510       -2.72560        2.01960
H          0.09400       -0.19990        2.19810
