15
gdb 19627	4.88123	2.02978	1.88138	2.5307	63.89	-0.2439	0.0828	0.3267	737.4203	0.120055	-362.562665	-362.556862	-362.555918	-362.59232	23.527
C          0.09990        1.42830       -0.00720
O          1.22310        0.52470       -0.06390
C         -0.08020       -0.01760       -0.01540
C         -0.66760       -0.91220        1.04330
C         -1.69110       -1.39450        0.07350
C         -0.71620       -0.92160       -1.07690
C          0.02080       -2.24610       -0.81450
N         -0.63990       -2.33170        0.53810
H          0.00170        1.98680        0.92300
H         -0.07900        2.00560       -0.91350
H         -0.73100       -0.77470        2.11390
H         -2.75740       -1.54990        0.15800
H         -0.95980       -0.54850       -2.06900
H         -0.34280       -3.07900       -1.42040
H          1.11570       -2.22820       -0.80380
