16
gdb 7813	3.30929	1.76295	1.22001	2.8627	61.09	-0.2387	-0.0242	0.2144	948.6838	0.130537	-420.890216	-420.882716	-420.881772	-420.922094	28.007
O         -0.08750        1.44110        0.05850
C          0.06600        0.03130        0.01300
C          0.72890       -0.50940        1.28490
O          0.82710       -1.92090        1.23370
C         -0.43660       -2.55950        1.24430
C         -1.36910       -2.06940        0.13330
O         -2.11210       -2.82220       -0.44810
C         -1.33290       -0.57110       -0.13230
H          0.78330        1.84440       -0.01920
H          0.68180       -0.27250       -0.84730
H          1.75220       -0.13240        1.38250
H          0.15440       -0.17620        2.16570
H         -0.26710       -3.63030        1.11950
H         -0.94900       -2.39850        2.21110
H         -1.97120       -0.09540        0.62740
H         -1.77600       -0.36250       -1.10830
