17
gdb 17958	2.72909	2.54335	1.47242	2.2119	69.98	-0.2397	-0.0067	0.233	858.4269	0.144153	-363.853658	-363.8466	-363.845656	-363.884718	27.121
C         -0.02290        1.39160        0.12050
C          1.35000        2.07700        0.00080
C          1.87730        2.23370       -1.40630
C          2.20990        1.23810       -2.22820
C          2.09470       -0.22640       -1.87520
N          0.74580       -0.73550       -2.16460
C         -0.13900       -0.57600       -1.28210
O          0.02610       -0.03470       -0.03180
H         -0.41670        1.55150        1.12900
H         -0.73310        1.82030       -0.59600
H          1.25430        3.06550        0.46410
H          2.05420        1.51330        0.62560
H          1.96650        3.25410       -1.77200
H          2.54930        1.47250       -3.23370
H          2.79700       -0.81070       -2.47570
H          2.34200       -0.37340       -0.81580
H         -1.14890       -0.95360       -1.45540
