13
gdb 21014	5.71281	1.64496	1.28764	7.214	65.36	-0.2308	-0.0606	0.1702	884.5875	0.095927	-394.770412	-394.763469	-394.762525	-394.802076	24.756
C         -0.01140        1.47220        0.00960
N         -0.04750        0.01700        0.00130
C         -1.21280       -0.68990        0.00460
C         -1.18580       -2.03890       -0.00310
C          0.09780       -2.71510       -0.01470
O          0.26210       -3.91560       -0.02230
N          1.25580       -1.85130       -0.01720
N          1.17090       -0.59330       -0.00970
H          1.03710        1.76730        0.00290
H         -0.51070        1.87570       -0.87640
H         -0.49630        1.86530        0.90820
H         -2.12390       -0.10080        0.01350
H         -2.09530       -2.62510       -0.00070
