15
gdb 17163	4.3901	1.87025	1.55287	2.0999	66.15	-0.2307	-0.0382	0.1925	816.3067	0.118884	-362.564271	-362.557813	-362.556869	-362.595092	24.516
O         -0.05670       -0.04350        0.08070
C          0.01830        1.15910        0.00700
C          1.30380        1.90820        0.00470
C          2.73850        1.41010        0.08760
N          2.97650        2.91780       -0.00100
C          1.77210        3.04940       -0.97240
C          1.17230        4.18880       -0.14650
C          1.70730        3.16710        0.85840
H         -0.89850        1.78980       -0.06560
H          3.07560        0.97000        1.03020
H          3.13920        0.85450       -0.76480
H          1.91680        2.95490       -2.05000
H          1.71210        5.13800       -0.18840
H          0.09110        4.33400       -0.19410
H          1.77530        3.21180        1.94670
