15
gdb 19272	3.44173	1.92977	1.42209	2.9144	61.39	-0.2368	-0.0204	0.2164	877.4942	0.118078	-399.758416	-399.750924	-399.74998	-399.790536	26.776
C          0.09870        1.31130       -0.13890
O         -0.29960       -0.00960        0.19820
C          0.51030       -0.59310        1.17280
C          0.16980       -2.02580        1.55250
C          0.43780       -2.94830        0.44410
N          1.60860       -2.50500        1.27020
C          1.90110       -1.16900        0.77550
O          2.90860       -0.73750        0.31040
H          1.11870        1.33540       -0.54100
H         -0.60030        1.66730       -0.89820
H          0.04810        1.97640        0.73640
H          0.61820        0.05570        2.05770
H         -0.32310       -2.32690        2.46770
H          0.21410       -3.99980        0.58720
H          0.36220       -2.59710       -0.58070
