20
gdb 14398	3.2066	2.48862	1.99648	0.1538	77.98	-0.2598	0.0962	0.356	795.4911	0.179913	-311.846319	-311.839871	-311.838927	-311.876272	27.542
C          0.03240        1.54830       -0.04710
C         -0.00580        0.04140       -0.06200
C          0.41660       -0.80870       -1.27200
C         -0.32920       -1.94470       -0.52670
C          0.60170       -2.16110        0.68660
C          0.37030       -0.75520        1.27720
C         -1.14520       -0.81720        1.60820
C         -1.29960       -0.83990        0.08240
H          1.06670        1.91370       -0.04870
H         -0.46680        1.96740       -0.92800
H         -0.45700        1.96180        0.84180
H         -0.11110       -0.47630       -2.17240
H          1.47890       -0.95210       -1.50160
H         -0.71000       -2.82090       -1.05050
H          0.28140       -2.95560        1.36740
H          1.63430       -2.35990        0.38440
H          1.09760       -0.36240        1.98850
H         -1.50200       -1.66210        2.20680
H         -1.52980        0.11530        2.03050
H         -2.22820       -0.62900       -0.44840
