8
gdb 111	26.22693	2.56863	2.42417	2.172	36.79	-0.2868	-0.0568	0.23	464.3999	0.054694	-246.023231	-246.017964	-246.017019	-246.051902	16.279
O          0.00420       -0.10570        0.10780
C          0.02500        1.05360       -0.19220
C          1.31230        1.89240       -0.14810
C          1.33890        2.93420       -1.16680
N          1.32160        3.74820       -1.98630
H         -0.88520        1.61030       -0.49610
H          1.36180        2.36100        0.84470
H          2.17340        1.22470       -0.23810
