18
gdb 16186	4.31743	1.56572	1.36239	1.8939	66.76	-0.2575	0.0795	0.337	949.8062	0.154832	-384.937642	-384.930112	-384.929168	-384.969563	28.756
O          0.02130        1.34080       -0.45450
C          0.03250        0.04380        0.12220
C         -1.35990       -0.51080        0.25220
C         -2.37900        0.10640        1.19560
C         -3.58300       -0.86380        1.14020
C         -2.98250       -2.24900        0.79180
C         -1.73270       -1.91050        0.00320
O         -1.95070       -0.91280       -1.00830
H         -0.41190        1.25500       -1.31160
H          0.64910       -0.65260       -0.46540
H          0.49330        0.15390        1.10990
H         -1.94210        0.14710        2.20150
H         -2.64080        1.12960        0.91350
H         -4.15250       -0.87840        2.07230
H         -4.26360       -0.55430        0.34460
H         -2.68980       -2.80190        1.69340
H         -3.67780       -2.88150        0.23150
H         -1.00470       -2.67740       -0.25250
