15
gdb 8635	2.48075	1.77544	1.39024	3.9476	65.88	-0.2957	-0.0178	0.2779	953.569	0.117902	-358.857115	-358.848226	-358.847282	-358.890318	31.32
C         -0.07530        1.55940        0.06730
C          0.02400        0.03580        0.00400
C          0.75290       -0.49020       -1.26910
N          2.12100        0.03400       -1.31380
C          0.71820       -1.97720       -1.24920
N          0.75600       -3.13050       -1.18770
C          0.04140       -0.03090       -2.48130
N         -0.52110        0.33530       -3.42050
H          0.91280        2.02190        0.02860
H         -0.66780        1.95190       -0.76400
H         -0.56370        1.85660        0.99920
H          0.58030       -0.35640        0.86310
H         -0.96850       -0.42300        0.03560
H          2.63570       -0.31320       -0.50910
H          2.60170       -0.29530       -2.14570
