20
gdb 12114	2.91938	1.87294	1.59569	1.7451	74.08	-0.2611	0.0916	0.3526	933.1193	0.175349	-348.98092	-348.972313	-348.971369	-349.013518	33.017
C          0.05160        1.42860        0.59550
C         -0.00400        0.01280        0.04950
C          0.92150       -0.35070       -1.08360
C          1.17490       -0.89890        0.30090
C         -1.37830       -0.62090        0.07220
C         -2.01100       -0.80490        1.43600
C         -2.23990       -0.52520       -1.11730
O         -1.55050       -1.74180       -0.80830
H          1.06340        1.83530        0.50730
H         -0.62400        2.09350        0.04440
H         -0.22760        1.47100        1.65390
H          0.55490       -1.04890       -1.82610
H          1.58270        0.42180       -1.46180
H          2.01130       -0.50910        0.87160
H          0.97390       -1.95350        0.45630
H         -2.20720        0.15770        1.91820
H         -2.95630       -1.34490        1.34410
H         -1.34720       -1.37980        2.09020
H         -3.32330       -0.56700       -1.01060
H         -1.87800       -0.00020       -2.00010
