18
gdb 17448	3.4083	2.0951	1.65992	1.2612	71.49	-0.2459	0.0781	0.3239	845.0603	0.153763	-347.755364	-347.747894	-347.74695	-347.786535	29.509
C         -0.02050        1.55310       -0.00530
C          0.11550        0.04950        0.11300
C          1.37000       -0.73570       -0.17570
C          2.61630       -0.02300        0.28970
C          3.27930       -0.79390        1.41410
C          2.04990        0.02990        1.70710
O          2.09280        1.13370        2.54810
C          0.78910       -0.67120        1.25730
H          0.85790        2.07400        0.37960
H         -0.16510        1.84830       -1.05090
H         -0.88760        1.90630        0.56340
H         -0.77150       -0.48820       -0.22160
H          1.36370       -1.60560       -0.82350
H          3.13940        0.76690       -0.23630
H          3.24990       -1.88050        1.42970
H          4.20350       -0.35580        1.78040
H          2.19510        0.82120        3.45340
H          0.29380       -1.47070        1.79890
