11
gdb 21346	6.53947	1.36906	1.19367	3.762	55.82	-0.3014	-0.039	0.2624	911.2648	0.073556	-389.740401	-389.733867	-389.732923	-389.772769	21.939
N         -0.31100       -0.83520       -0.93970
C         -0.12460        0.12410       -0.32560
C          0.09130        1.35690        0.43350
N          1.38240        1.95910        0.14510
C          2.03800        2.17530       -1.01220
N          3.15520        2.81400       -0.75140
N          3.17140        2.99140        0.59860
N          2.12270        2.48710        1.14930
H         -0.71790        2.06200        0.21350
H          0.07410        1.14950        1.50650
H          1.68830        1.85250       -1.97930
