9
gdb 3943	7.57669	2.34137	1.78864	3.6831	40.61	-0.2404	0.0261	0.2664	612.4799	0.056089	-412.548009	-412.542359	-412.541415	-412.577533	19.952
O         -0.08120        1.28160        0.04220
C          0.05730       -0.03420        0.00040
N          1.14920       -0.70860       -0.06430
N          0.67110       -2.02030       -0.07920
C         -0.68380       -2.10470       -0.02400
O         -1.44250       -3.02570       -0.01760
O         -1.08300       -0.74010        0.02960
H          0.80290        1.67210        0.01520
H          1.30830       -2.79480       -0.12760
