21
gdb 5820	2.63117	1.66846	1.34778	3.9167	78.09	-0.3095	0.0366	0.346	1043.8339	0.186498	-329.160652	-329.150801	-329.149857	-329.194458	36.681
C         -0.10520        1.56840       -0.09110
C          0.04260        0.03480       -0.00100
C          0.67790       -0.45810       -1.23010
N          1.18390       -0.83160       -2.20040
C          0.78800       -0.50690        1.27080
C          0.04780       -0.02710        2.53260
C          0.75950       -2.04670        1.23630
C          2.24830       -0.02350        1.30730
H          0.86800        2.06400       -0.11560
H         -0.64150        1.84150       -1.00340
H         -0.67100        1.95040        0.76070
H         -0.96690       -0.39800        0.01780
H         -1.01100       -0.30890        2.50800
H          0.49110       -0.48740        3.42130
H          0.10910        1.05680        2.66330
H          1.27060       -2.43860        0.35230
H          1.25660       -2.45550        2.12160
H         -0.26920       -2.42440        1.22750
H          2.31660        1.06580        1.38530
H          2.76130       -0.44590        2.17720
H          2.79490       -0.33590        0.41220
