16
gdb 10259	2.27081	2.1261	1.14555	3.8985	71.46	-0.2414	-0.0023	0.2391	1020.9438	0.127869	-342.733807	-342.724837	-342.723893	-342.767185	32.034
C          0.03430        1.47420        0.01820
N          0.02550        0.01500        0.02210
C          0.69560       -0.51130        1.20750
C         -1.33820       -0.51680       -0.10660
C         -2.03170       -0.01850       -1.30020
C         -2.63270        0.37630       -2.26070
C         -1.31370       -1.99560       -0.15640
N         -1.31750       -3.15000       -0.17450
H          1.07150        1.81680        0.05790
H         -0.41920        1.85150       -0.89970
H         -0.50400        1.91070        0.88060
H          0.19520       -0.21910        2.15020
H          0.74340       -1.60170        1.16500
H          1.71780       -0.12600        1.23260
H         -1.95710       -0.25120        0.77740
H         -3.15730        0.72280       -3.11730
