19
gdb 6034	3.06876	1.52886	1.32102	2.0521	67.2	-0.241	0.0355	0.2765	1012.1446	0.162554	-402.235099	-402.224737	-402.223793	-402.270679	36.522
C         -0.02220        1.54840        0.01520
C          0.00010        0.00520        0.01750
C          0.74840       -0.51790        1.26200
C         -1.44260       -0.52950        0.02290
O         -2.08440       -0.05670        1.20230
C          0.67000       -0.52060       -1.26670
N          1.96890       -0.14630       -1.45270
O          0.09050       -1.22650       -2.07310
H          0.98370        1.97410        0.08620
H         -0.48590        1.93410       -0.89850
H         -0.60360        1.90520        0.86840
H          0.19720       -0.23800        2.16250
H          0.83390       -1.60920        1.24000
H          1.75880       -0.10390        1.33790
H         -1.96080       -0.18490       -0.88110
H         -1.42330       -1.62640       -0.01080
H         -2.98460       -0.39220        1.20310
H          2.46900        0.43470       -0.80480
H          2.43980       -0.47070       -2.28080
