15
gdb 3501	6.29452	2.16236	2.02358	2.4932	61.88	-0.2466	-0.026	0.2206	676.8724	0.12592	-308.470667	-308.46474	-308.463796	-308.500513	22.437
O         -0.72930        0.84670        0.59590
C          0.06780        1.07520       -0.28120
C          1.25730        1.98470       -0.17440
C          1.11290        3.50940       -0.55960
C          0.34980        3.71620        0.77970
C          1.55700        2.78910        1.12330
C          2.42760        3.73280        0.24050
H         -0.03560        0.58750       -1.27970
H          2.11870        1.50060       -0.65270
H          0.85890        3.90310       -1.54460
H          0.39190        4.72680        1.19430
H         -0.64520        3.28430        0.87120
H          1.81030        2.36880        2.09610
H          3.34370        3.31290       -0.18420
H          2.58780        4.74290        0.62590
