17
gdb 16208	3.06517	2.24055	1.48988	2.4505	68.75	-0.2449	-0.0258	0.2192	863.8198	0.144037	-363.876682	-363.869635	-363.868691	-363.907945	27.122
O          0.10600        0.03710       -0.21260
C          0.02950        1.23050       -0.03540
C         -1.23660        2.06530        0.13930
C         -0.73090        3.44650        0.60120
C          0.67180        3.58460       -0.04020
C          1.20800        2.16670        0.00330
C          2.39780        1.70820        0.78840
N          2.44340        1.75960       -0.66970
H         -1.72160        2.12910       -0.84410
H         -1.94620        1.57950        0.81290
H         -1.40180        4.26100        0.32050
H         -0.63990        3.46020        1.69300
H          0.58700        3.91320       -1.08320
H          1.30860        4.30440        0.47880
H          2.99770        2.45740        1.29880
H          2.33580        0.73810        1.27390
H          2.29500        0.81620       -1.03250
