17
gdb 13845	4.33054	1.4582	1.26994	3.3345	70.13	-0.2329	0.0148	0.2477	988.1781	0.143225	-363.912468	-363.904394	-363.90345	-363.945796	29.141
N         -0.00410        1.35470       -0.21580
C          0.06530        0.03870        0.14250
O          1.10280       -0.47930        0.50530
C         -1.28170       -0.70020        0.09400
C         -1.11850       -2.23750        0.00410
C         -2.14830       -2.84110        0.99360
C         -2.52400       -1.66730        1.86240
C         -2.07010       -0.51350        1.37980
H          0.84160        1.90080       -0.20050
H         -0.84060        1.76670       -0.58920
H         -1.85690       -0.29840       -0.75390
H         -1.24510       -2.60800       -1.01580
H         -0.10080       -2.47440        0.32330
H         -3.03480       -3.23680        0.47820
H         -1.73280       -3.67670        1.56820
H         -3.12630       -1.76990        2.75870
H         -2.23610        0.46480        1.81730
