16
gdb 12274	4.11313	1.41889	1.1461	2.0023	61.27	-0.2558	-0.0386	0.2172	1015.7032	0.129219	-420.871899	-420.863555	-420.862611	-420.905036	29.773
O          0.07620        1.29430        0.30400
C          0.01400       -0.05290       -0.11430
C         -1.42680       -0.56600       -0.08850
C         -1.73620       -2.09690       -0.12120
C         -2.77100       -1.90680        1.05490
O         -2.90510       -2.82830        2.08850
C         -2.04490       -0.58670        1.31260
O         -1.75140       -0.01400        2.33170
H         -0.27260        1.31760        1.20470
H          0.42230       -0.09250       -1.12930
H          0.63990       -0.70510        0.51680
H         -2.04280       -0.00270       -0.79610
H         -2.13510       -2.51000       -1.04720
H         -0.87760       -2.68780        0.20950
H         -3.76250       -1.72310        0.62280
H         -2.25990       -2.60670        2.77050
