14
gdb 13752	3.51052	1.39088	1.23524	3.9434	59.82	-0.2588	-0.0595	0.1993	1003.1093	0.103423	-419.673865	-419.665569	-419.664625	-419.707641	28.206
C          0.11090        1.36290       -0.78960
C          0.02410        0.09380        0.02970
O          0.97570       -0.41160        0.57430
C         -1.36230       -0.51480        0.12610
O         -1.45190       -1.88890        0.44620
C         -1.93220       -0.98030        1.42770
C         -1.15750       -0.90600        2.71200
O         -1.66020       -0.50160        3.73010
H          1.11810        1.77470       -0.72880
H         -0.13820        1.15160       -1.83640
H         -0.61780        2.10040       -0.43310
H         -2.08430       -0.16690       -0.61410
H         -3.01410       -0.92450        1.54690
H         -0.11290       -1.25900        2.64410
