14
gdb 902	6.96625	2.03651	1.59188	1.7744	60.31	-0.1841	0.0475	0.2317	750.6495	0.114013	-324.602433	-324.595443	-324.594499	-324.633577	25.235
C         -0.04870        1.45020       -0.00480
N         -0.03300        0.00500        0.00550
C         -0.01470       -0.80040       -1.09670
C          0.07040       -2.11390       -0.68310
C          0.10820       -2.08970        0.73730
O          0.18330       -3.14980        1.59590
C          0.04660       -0.77530        1.14250
H          0.92090        1.86760        0.29130
H         -0.28370        1.79840       -1.01260
H         -0.81390        1.83130        0.67890
H         -0.06270       -0.37720       -2.08760
H          0.08910       -2.98550       -1.32050
H          0.21860       -3.95670        1.07490
H          0.05040       -0.34140        2.12810
