10
gdb 21701	3.53044	2.49126	1.46083	3.9104	54.27	-0.2653	-0.1059	0.1594	744.383	0.059052	-446.699043	-446.6923	-446.691356	-446.730294	24.021
N          0.02670        1.34770        0.05610
C         -0.03730        0.00570        0.01530
N         -1.18580       -0.61320       -0.00020
O         -1.12190       -1.99250       -0.01260
N          0.06420       -2.70690       -0.01200
N          1.16350       -2.11700       -0.01220
C          1.24760       -0.71000       -0.00830
O          2.31310       -0.13620       -0.02680
H          0.93770        1.76840       -0.02430
H         -0.80760        1.90590       -0.00410
