19
gdb 12118	2.98851	1.87767	1.58989	2.2261	70.79	-0.2384	0.0687	0.307	911.2664	0.164357	-365.021028	-365.012584	-365.01164	-365.053406	32.655
C         -0.05820        1.36390       -0.67540
C         -0.06450       -0.02050       -0.05820
C          1.13050       -0.88530       -0.22830
N          0.82040       -0.28840        1.08760
C         -1.43060       -0.65910        0.03710
O         -2.06080       -0.82190       -1.21190
C         -1.69740       -1.75370        1.02020
C         -2.30790       -0.38140        1.23260
H          0.95940        1.76110       -0.74580
H         -0.47290        1.34150       -1.68860
H         -0.65680        2.06210       -0.07840
H          1.01180       -1.96370       -0.27600
H          1.97480       -0.49320       -0.78960
H          1.42190        0.51490        1.25260
H         -2.46300        0.01870       -1.45420
H         -2.35560       -2.54450        0.68020
H         -0.89130       -2.04870        1.68030
H         -1.90360        0.22920        2.03260
H         -3.37180       -0.27030        1.05300
