15
gdb 18652	3.3611	2.29136	1.54042	3.9341	67.66	-0.2346	-0.0472	0.1874	810.3607	0.121276	-362.670734	-362.664375	-362.663431	-362.701197	24.806
O          0.04430        0.03510        0.44870
C         -0.02000        1.19350        0.08360
C         -1.30310        1.87140       -0.18630
C         -1.38550        3.02290       -0.86340
C         -0.21060        3.77370       -1.42150
C          1.12730        3.29810       -0.89550
N          1.27140        3.30790        0.55930
C          1.22020        2.00410       -0.15290
H         -2.19070        1.34700        0.15270
H         -2.36390        3.45400       -1.06480
H         -0.22840        3.69030       -2.51790
H         -0.32640        4.84460       -1.20620
H          1.99130        3.58200       -1.49210
H          2.23590        3.50070        0.81700
H          2.12960        1.41400       -0.21300
