19
gdb 1187	4.34167	1.6366	1.63065	2.6199	63.41	-0.2604	0.0669	0.3272	871.3942	0.168887	-348.048844	-348.039503	-348.038559	-348.08189	33.492
C         -0.01210        1.55260        0.02300
C          0.01440        0.01350        0.02350
C          0.75740       -0.50650        1.26730
C         -1.42200       -0.53230        0.00860
O         -2.09820       -0.08100        1.17340
C          0.70870       -0.49610       -1.24920
O          2.04330       -0.01030       -1.27150
H          1.00430        1.95170        0.00600
H         -0.53930        1.93510       -0.85910
H         -0.52780        1.92560        0.91040
H          0.25630       -0.17280        2.17840
H          0.78290       -1.60270        1.27870
H          1.78850       -0.14660        1.27400
H         -1.93770       -0.18450       -0.90200
H         -1.39600       -1.63430       -0.02580
H         -2.99460       -0.42660        1.15310
H          0.69400       -1.59870       -1.25930
H          0.15180       -0.14910       -2.13550
H          2.46830       -0.33660       -2.06930
