12
gdb 20432	6.41813	1.58332	1.33987	3.6969	56.99	-0.2649	-0.0654	0.1995	851.6872	0.084258	-410.74823	-410.741991	-410.741047	-410.779285	22.2
C         -0.16550        1.30800       -0.30840
C          1.26130        1.01800        0.01710
N          0.24870       -0.02560        0.13220
C         -0.12110       -0.49200        1.36880
N          0.68460       -0.77940        2.35740
O         -0.14150       -1.29950        3.30940
N         -1.44260       -1.28520        2.83740
N         -1.43770       -0.80530        1.67590
H         -0.73160        1.91380        0.39330
H         -0.49280        1.36230       -1.34100
H          1.98190        0.86700       -0.77960
H          1.66440        1.42240        0.94100
