14
gdb 1612	3.92544	2.37994	1.50974	2.6207	56.89	-0.2511	-0.0741	0.177	780.1238	0.111467	-361.740208	-361.732024	-361.73108	-361.773557	26.746
C          0.16620        1.37820        0.03790
N          0.09840       -0.07020       -0.09890
C          0.48810       -0.82560        1.08330
C         -0.31100       -0.58650       -1.28650
O         -0.62950        0.08940       -2.25710
C         -0.41370       -2.10620       -1.52310
O         -0.17800       -3.01830       -0.77550
H          1.19060        1.68810        0.27700
H         -0.14630        1.83380       -0.89960
H         -0.49100        1.71240        0.84970
H          0.41050       -1.89260        0.90170
H          1.52100       -0.57840        1.35890
H         -0.15750       -0.55360        1.92790
H         -0.76490       -2.26010       -2.56330
