17
gdb 17577	3.48302	2.37131	1.93926	2.0144	66.87	-0.2284	0.0703	0.2987	751.2688	0.14431	-363.800219	-363.794076	-363.793132	-363.829906	26.237
O         -0.10820        1.39010        0.07340
C          0.05150        0.01070        0.08650
C          0.86300       -0.81540       -0.98920
C          0.67830       -1.91220        0.09870
C          0.87750       -0.77620        1.14230
N         -0.79560       -2.16820       -0.04880
C         -1.64410       -1.72620        1.07380
C         -1.27330       -0.76010        0.01110
H          0.76330        1.79790        0.05280
H          0.39030       -0.99820       -1.95630
H          1.89670       -0.47910       -1.10680
H          1.26690       -2.82680        0.11780
H          1.91910       -0.44740        1.16080
H          0.51440       -0.87670        2.16470
H         -2.64110       -2.15700        1.03630
H         -1.24340       -1.64260        2.07710
H         -1.99700       -0.43060       -0.72960
