14
gdb 15497	3.80812	1.99136	1.31834	6.0463	67.61	-0.2429	-0.0432	0.1997	867.803	0.10855	-378.758684	-378.751808	-378.750864	-378.790024	25.095
N          0.00110        1.34790        0.01070
C          0.06480        0.07820        0.00360
C          1.22910       -0.83230       -0.00840
C          0.83090       -2.10440       -0.01300
C         -0.66650       -2.18440       -0.00440
N         -1.06660       -0.77640        0.00580
C         -2.40330       -0.42250        0.01720
O         -2.85820        0.68970        0.02680
H          0.94560        1.73390        0.00710
H          2.24520       -0.46090       -0.01260
H          1.45660       -2.98690       -0.02160
H         -1.05400       -2.70840       -0.88920
H         -1.04350       -2.71820        0.87920
H         -3.03770       -1.33470        0.01650
