18
gdb 15093	2.71597	1.54759	1.09841	2.2752	63.74	-0.2598	0.0692	0.329	1083.6341	0.152348	-422.035492	-422.026442	-422.025498	-422.06939	32.184
O         -0.03920        1.35640       -0.11110
C         -0.06560       -0.06320       -0.06030
C         -1.53120       -0.51350       -0.02730
C         -2.23300       -0.14580       -1.34450
O         -3.65270       -0.20950       -1.27560
C         -1.59510       -1.99050        0.31930
C         -2.62600       -2.91390       -0.16740
O         -1.30690       -2.92140       -0.73010
H          0.86850        1.63700       -0.25810
H          0.43300       -0.50850       -0.93500
H          0.45280       -0.43530        0.83730
H         -2.01320        0.04270        0.79090
H         -1.89520        0.85100       -1.65150
H         -1.93810       -0.86100       -2.11830
H         -3.94810        0.47230       -0.66380
H         -1.10930       -2.24430        1.26480
H         -2.87540       -3.79210        0.42700
H         -3.41170       -2.53630       -0.81470
