18
gdb 16973	3.87119	2.25911	2.14278	0.1893	76.84	-0.2158	0.0129	0.2288	747.4554	0.155977	-310.561179	-310.555327	-310.554382	-310.590502	25.803
C         -0.03690        1.60750       -0.24430
C          1.52370        1.47960        0.06020
C          1.12600        0.25060        0.92970
C          1.10890       -1.33040        1.09480
C         -0.47370       -1.02150        1.12710
C         -0.55320       -0.18530        2.40230
C          0.48450        0.64250        2.27780
C         -0.09400        0.07040        0.04120
H         -0.52810        2.21770        0.51570
H         -0.33450        1.94460       -1.24000
H          2.08190        1.21470       -0.84150
H          2.01370        2.32320        0.55600
H          1.43140       -1.88340        0.20740
H          1.53410       -1.76100        2.00560
H         -1.20950       -1.80950        0.95890
H         -1.27490       -0.29510        3.19930
H          0.85460        1.41120        2.94310
H          0.18050       -0.44300       -0.88740
