17
gdb 12354	3.08151	2.13819	1.57893	1.4921	64.42	-0.2495	0.0172	0.2668	851.8306	0.142913	-401.014187	-401.006409	-401.005464	-401.046202	28.894
C          0.02740        1.54170       -0.04430
C          0.01780        0.02800        0.05360
O          0.64880       -0.47760       -1.14970
C          1.11830       -1.74590       -1.10330
N          1.20120       -2.54050       -0.12170
C          0.75390       -2.05870        1.18650
C          0.74520       -0.53100        1.28520
O          2.05820       -0.00090        1.40290
H          1.05210        1.91400        0.01470
H         -0.42120        1.86570       -0.98680
H         -0.54700        1.97270        0.78150
H         -1.01500       -0.34730        0.06000
H          1.46790       -2.04580       -2.09030
H         -0.24510       -2.46350        1.39380
H          1.42330       -2.46690        1.95110
H          0.21360       -0.20630        2.18620
H          2.61140       -0.42670        0.73820
