17
gdb 13307	5.49563	1.19575	1.03005	4.2023	74.02	-0.2524	0.0118	0.2643	1116.0598	0.143737	-326.759269	-326.751717	-326.750773	-326.791727	27.727
N         -0.05460       -1.20160       -0.03210
C         -0.04600       -0.04590       -0.04290
C         -0.00430        1.41500       -0.05380
C          1.43630        1.97420        0.01240
C          1.46950        3.52590       -0.03230
C          2.60830        3.94870        0.93040
C          2.79730        2.72250        1.79140
C          2.17020        1.65730        1.29750
H         -0.50290        1.76880       -0.96370
H         -0.58650        1.78790        0.79690
H          1.98640        1.55020       -0.83960
H          1.59930        3.91240       -1.04610
H          0.51570        3.91550        0.34170
H          3.53410        4.18480        0.38760
H          2.35690        4.84500        1.50820
H          3.41450        2.72480        2.68300
H          2.19350        0.65670        1.71480
