16
gdb 13188	4.52174	1.33703	1.09639	2.3235	61.49	-0.2556	-0.0394	0.2162	1048.0805	0.129197	-420.859593	-420.851568	-420.850624	-420.892879	28.203
O         -0.03400        1.48790        0.02110
C          0.03600        0.09260        0.09700
C          0.66440       -0.48220       -1.15660
O          1.02310        0.23720       -2.05980
C          0.84140       -0.33300        1.33490
C          0.16160       -0.13200        2.70400
C          0.23570       -1.67060        2.80270
O          0.84710       -1.76770        1.49380
H          0.34940        1.71780       -0.84150
H         -0.97090       -0.35350        0.18700
H          0.78130       -1.58060       -1.19110
H          1.85740        0.07550        1.25810
H          0.74710        0.41820        3.44050
H         -0.84280        0.29090        2.65430
H          0.89500       -2.06400        3.58490
H         -0.72160       -2.20250        2.84410
