12
gdb 21813	7.26428	1.22065	1.11937	0.8284	56.58	-0.2807	-0.0543	0.2263	983.4805	0.084185	-410.824383	-410.817508	-410.816564	-410.857212	22.706
O         -0.00880       -0.04620        0.35310
C          0.07310        0.97750       -0.26430
C          1.25660        1.93440       -0.09950
N          1.32210        2.91270       -1.16190
N          1.55820        2.58920       -2.42910
C          1.48570        3.77730       -3.01540
N          1.21370        4.77550       -2.14370
N          1.10810        4.21160       -0.96840
H         -0.70380        1.31390       -0.98320
H          1.14250        2.48830        0.83640
H          2.18390        1.35840       -0.05950
H          1.63020        3.92580       -4.07300
