16
gdb 591	10.98354	1.8194	1.73248	0.9952	57.69	-0.2424	0.0952	0.3376	757.9582	0.14199	-271.611192	-271.60423	-271.603286	-271.641993	24.716
C          0.01800        1.45780       -0.06270
C         -0.13370       -0.03840       -0.27660
O          1.04890       -0.52390       -0.89240
C          1.02420       -1.89480       -1.12710
C          0.35780       -2.41900       -2.37530
C          1.87000       -2.39270       -2.25210
H          0.88090        1.66890        0.57530
H          0.16690        1.96890       -1.01820
H         -0.87680        1.86800        0.41500
H         -0.29580       -0.55240        0.68540
H         -1.00710       -0.25770       -0.91050
H          0.95470       -2.50360       -0.22370
H         -0.15570       -3.37340       -2.33590
H         -0.09230       -1.68460       -3.03410
H          2.39780       -1.63910       -2.82520
H          2.40380       -3.32780       -2.12600
