17
gdb 1934	3.51746	2.94597	2.07811	1.8352	64.63	-0.237	0.0953	0.3324	712.6813	0.14687	-309.700336	-309.693007	-309.692063	-309.731059	27.702
C         -0.10200        1.52910        0.06350
C          0.17320        0.06190        0.00270
C          0.66110       -0.77100       -1.19670
C          1.27890       -1.79160       -0.17990
C          0.75670       -0.90210        0.96320
C          1.28890       -0.76870        2.35280
O         -0.66820       -0.81630        0.77380
H          0.73470        2.10020       -0.35230
H         -0.99890        1.77910       -0.51510
H         -0.26790        1.84960        1.09560
H         -0.13160       -1.14420       -1.85000
H          1.42040       -0.26400       -1.79800
H          0.87490       -2.80700       -0.19320
H          2.37000       -1.83270       -0.23500
H          2.37130       -0.60350        2.34150
H          0.81120        0.06670        2.87200
H          1.09490       -1.67980        2.93090
