16
gdb 12864	2.95545	2.39665	1.73676	1.0093	59.45	-0.2527	0.0587	0.3114	785.0191	0.131343	-420.848851	-420.841982	-420.841038	-420.879828	26.324
O          0.14430        1.38390       -0.14660
C          0.06360       -0.00620       -0.02120
C          0.24940       -0.78530       -1.32910
O         -0.88180       -1.62820       -1.01050
C         -1.30790       -0.73280        0.04680
C         -1.38060       -1.36520        1.44020
O         -0.27200       -0.82410        2.16380
C          0.76510       -0.59690        1.21870
H         -0.01190        1.77600        0.71990
H          0.06250       -0.16430       -2.21330
H          1.17300       -1.35850       -1.46250
H         -2.18850       -0.15110       -0.24430
H         -2.28790       -1.11260        1.99500
H         -1.30350       -2.45850        1.34800
H          1.27810       -1.53810        0.96630
H          1.48980        0.09340        1.65880
