13
gdb 20451	6.45657	1.49904	1.33252	3.1352	60.35	-0.2695	-0.0285	0.241	883.9266	0.097744	-394.749374	-394.743079	-394.742135	-394.780528	22.578
C          0.20710        1.53940        0.11180
N          1.25450        0.54180       -0.09420
C         -0.14380        0.08900        0.05590
C         -0.47150       -0.67980        1.26450
N         -1.30350       -1.67850        1.35670
C         -1.22910       -1.97630        2.69430
N         -0.41930       -1.22850        3.39100
O          0.09570       -0.34760        2.42930
H          0.23730        2.03500        1.07710
H         -0.11670        2.15950       -0.71980
H          1.51760        0.49290       -1.07500
H         -0.67710       -0.27350       -0.81640
H         -1.79230       -2.77270        3.15880
