17
gdb 15348	6.15873	0.91968	0.88807	5.0874	69.65	-0.2811	0.0297	0.3109	1314.8216	0.140875	-363.861483	-363.852782	-363.851838	-363.895744	30.331
C         -0.10420        1.44930       -0.49470
C          0.01930        0.15470        0.31930
C         -1.31220       -0.54490        0.45590
O         -1.82510       -1.23100       -0.69720
C         -1.52610       -2.00100        0.46210
C         -0.39770       -3.01560        0.34810
C         -0.85500       -4.28230       -0.22420
N         -1.22530       -5.28390       -0.66480
H          0.86320        1.95190       -0.58030
H         -0.47010        1.23590       -1.50310
H         -0.80460        2.14710       -0.02350
H          0.74990       -0.50760       -0.15460
H          0.39600        0.37890        1.32570
H         -2.07150        0.04850        0.97170
H         -2.40340       -2.38340        0.98570
H          0.40870       -2.62060       -0.27440
H          0.01940       -3.21630        1.34260
