15
gdb 8856	3.97423	1.22733	1.02778	3.7768	62.62	-0.2861	-0.0869	0.1992	1104.2885	0.116317	-399.814633	-399.805535	-399.80459	-399.848943	30.871
C         -0.24050        1.41100        0.12770
C          0.06290       -0.09170       -0.04670
C          0.83320       -0.38820       -1.33390
O          0.00280        0.01230       -2.41090
C          0.81000       -0.62890        1.15300
O          1.92180       -1.09540        1.13500
C          0.07070       -0.54840        2.43690
N         -0.51310       -0.49360        3.43360
H          0.68710        1.98650        0.21240
H         -0.78520        1.76180       -0.75000
H         -0.84670        1.59800        1.01760
H         -0.89860       -0.62390       -0.08840
H          1.78630        0.16090       -1.32530
H          1.07430       -1.45920       -1.38230
H          0.48330       -0.12930       -3.23140
