20
gdb 16960	3.22286	2.13458	1.93571	1.575	73.13	-0.2361	0.0811	0.3172	828.3393	0.180289	-349.024228	-349.01738	-349.016436	-349.054884	27.919
C         -0.18160        1.55210        0.01870
C          0.01620        0.03820        0.00380
C          0.86640       -0.50320       -1.20030
C          1.99870       -1.29680       -0.50330
C          2.89540       -0.28250        0.22320
O          2.06750        0.20940        1.29590
C          0.82520       -0.50790        1.20390
C          1.25920       -1.89480        0.71380
H          0.78110        2.06600        0.09120
H         -0.68800        1.89160       -0.89090
H         -0.78980        1.86390        0.87500
H         -0.96750       -0.44740        0.00590
H          0.27280       -1.15130       -1.85170
H          1.26280        0.30820       -1.81920
H          2.54360       -1.98980       -1.14600
H          3.79880       -0.74480        0.64390
H          3.20110        0.55170       -0.42050
H          0.32620       -0.43950        2.17210
H          0.42340       -2.54420        0.44030
H          1.91310       -2.41120        1.42120
