16
gdb 9067	5.98381	0.86754	0.80197	1.6894	67.89	-0.2619	0.0091	0.271	1352.5598	0.12981	-379.95989	-379.950967	-379.950022	-379.994513	29.978
C         -0.12870        1.41520        0.05210
N         -0.00350       -0.03110       -0.03640
C          0.00390       -0.81470        1.17740
C         -1.40460       -0.94960        1.81180
C         -1.36660       -1.72760        3.04600
N         -1.30350       -2.34770        4.01890
C          0.13920       -0.62590       -1.26150
O          0.14210       -0.04930       -2.32590
H          0.65230        1.82900        0.70040
H         -0.01940        1.81630       -0.95540
H         -1.10550        1.71600        0.44820
H          0.38770       -1.81310        0.94950
H          0.68600       -0.36400        1.90770
H         -1.81990        0.03930        2.03240
H         -2.08370       -1.43250        1.10100
H          0.25920       -1.72340       -1.16980
