13
gdb 365	9.70719	2.14704	1.81406	1.6419	46.49	-0.2466	0.015	0.2616	669.5959	0.107439	-323.652284	-323.644911	-323.643967	-323.684119	23.834
C          0.00730        1.37280       -0.00600
O         -0.04880       -0.05770        0.07200
C         -1.27850       -0.59680       -0.03120
O         -2.28740        0.04620       -0.17960
C         -1.21640       -2.11950        0.06490
N         -2.49650       -2.79650       -0.03520
H          1.06050        1.63540        0.09330
H         -0.38570        1.72240       -0.96410
H         -0.57760        1.82590        0.79860
H         -0.54010       -2.47880       -0.71970
H         -0.72930       -2.37720        1.01280
H         -3.11640       -2.43780        0.68630
H         -2.94230       -2.53100       -0.90950
