16
gdb 18538	3.63891	2.10257	1.62173	2.6448	69.32	-0.2389	-0.0189	0.2201	812.1742	0.131767	-346.62567	-346.61919	-346.618245	-346.656474	25.356
O          0.02840       -0.01710       -0.29050
C         -0.02770        1.15640       -0.06380
C         -1.17760        2.13130        0.24460
C         -0.09160        3.17620        0.66830
C          0.21430        3.21830        2.14250
C          1.34650        2.58700        2.45700
C          2.06280        2.01090        1.25480
C          1.04830        2.24720        0.11720
H         -1.72680        2.40710       -0.66250
H         -1.89450        1.80350        1.00220
H         -0.21110        4.16530        0.21930
H         -0.44270        3.70620        2.85490
H          1.74470        2.49230        3.46160
H          3.01740        2.52120        1.07340
H          2.29640        0.94600        1.37060
H          1.50150        2.53900       -0.83340
