16
gdb 19922	4.38074	2.16101	1.77526	1.4272	69.88	-0.2316	0.	0.2316	763.1323	0.132757	-346.549123	-346.543173	-346.542229	-346.578913	24.264
C         -0.01420        1.44860        0.18360
C          1.35530        0.82280        0.00750
C          1.99370        0.50970        1.32940
C          1.34240       -0.50190        1.90350
C          0.57840       -0.83530        3.16210
O         -0.63230       -0.86600        2.34540
C          0.16930       -0.98730        1.10470
C          0.07270       -0.03310       -0.06330
H         -0.29770        1.78890        1.17360
H         -0.40080        2.04750       -0.63420
H          1.93120        1.05830       -0.88080
H          2.70650        1.17550        1.80270
H          0.77970       -1.82000        3.60490
H          0.53590       -0.07570        3.94900
H          0.15910       -2.03670        0.78420
H         -0.27370       -0.40750       -1.01860
