13
gdb 21494	5.19021	1.58613	1.23606	2.9748	61.89	-0.2544	-0.035	0.2194	902.4177	0.098614	-394.833051	-394.826323	-394.825379	-394.864218	24.917
N         -0.11460        1.36000        0.05180
C          0.03600        0.00150       -0.16660
O          1.10290       -0.50590       -0.44580
C         -1.21510       -0.78230       -0.08270
C         -1.39520       -2.13990        0.10560
C         -2.79060       -2.31910        0.10820
N         -3.44070       -1.16940       -0.07840
N         -2.46880       -0.24990       -0.17270
H          0.75830        1.86550        0.10850
H         -0.82460        1.66520        0.70030
H         -0.61470       -2.87090        0.23360
H         -3.35150       -3.23320        0.23450
H         -2.71270        0.69070       -0.43670
