17
gdb 4006	3.03539	1.27686	1.01192	2.1277	68.88	-0.2455	-0.0377	0.2078	1165.3207	0.139195	-400.972102	-400.962745	-400.9618	-401.007505	32.147
C          0.38220        0.50700        1.53900
C          0.06480        0.02210        0.11160
C         -1.29790       -0.61820        0.02250
C         -1.40100       -2.12570        0.08640
C         -0.93060       -2.72780       -1.23030
O          0.10220       -3.32710       -1.37640
N         -2.40540        0.00840       -0.11170
O         -2.21820        1.39720       -0.17460
H          1.37850        0.95700        1.57530
H         -0.34690        1.25550        1.85780
H          0.36140       -0.32000        2.25580
H          0.10010        0.87290       -0.57450
H          0.81900       -0.70260       -0.21140
H         -0.77550       -2.52470        0.89090
H         -2.44730       -2.40230        0.24800
H         -1.62110       -2.54170       -2.08320
H         -3.12000        1.71820       -0.28040
