18
gdb 10538	2.95428	1.39097	1.06592	4.8491	72.67	-0.2719	0.0234	0.2953	1153.1329	0.153624	-343.977421	-343.968737	-343.967793	-344.010951	31.266
C          0.06180        1.57450        0.02990
C          0.20410        0.05100        0.06370
C          0.51980       -0.54070       -1.31680
C          0.67640       -2.05490       -1.31030
C          1.63320       -2.71050       -2.25300
N          1.93060       -2.66860       -0.81890
C         -0.52200       -2.78450       -0.93820
N         -1.50160       -3.33410       -0.66470
H          0.98390        2.05420       -0.31720
H         -0.74520        1.88210       -0.64410
H         -0.16550        1.97090        1.02360
H          0.99440       -0.23300        0.77000
H         -0.72010       -0.40040        0.44310
H         -0.27210       -0.26760       -2.02550
H          1.45000       -0.10800       -1.70770
H          1.41180       -3.69820       -2.64450
H          2.17350       -2.05450       -2.93040
H          2.59780       -1.92760       -0.61400
