15
gdb 18317	4.1568	2.01907	1.46662	3.1892	68.3	-0.2068	-0.0051	0.2017	827.6042	0.121118	-362.672959	-362.666573	-362.665628	-362.703376	24.995
O         -0.15230       -0.03340       -0.34030
C         -0.03450        1.13980       -0.07450
N         -1.08710        2.02540        0.16750
C         -0.64130        3.31960        0.49450
C          0.67470        3.41360        0.25990
C          1.89780        3.83280        1.04680
C          2.17910        2.29000        1.15690
C          1.20700        2.03730       -0.06000
H         -2.04820        1.72710        0.12930
H         -1.31100        4.00280        0.99960
H          2.66130        4.34060        0.44910
H          1.74270        4.38720        1.97480
H          3.20960        1.96010        1.01060
H          1.78600        1.87440        2.08610
H          1.76310        1.90450       -0.99170
