16
gdb 11839	5.93861	1.24296	1.22226	1.6797	71.66	-0.2337	0.0224	0.2561	1027.0961	0.128797	-346.530478	-346.522866	-346.521922	-346.562758	28.891
C         -0.58190       -1.14580       -0.64360
C         -0.23410       -0.04420       -0.31140
C          0.16560        1.29160        0.09400
C         -0.11000        1.70610        1.56780
C          1.40080        1.87870        1.63920
C          2.21660        2.98200        2.22490
C          2.36610        1.54810        2.72450
O          1.59950        1.43260        0.29340
H         -0.88280       -2.12010       -0.94040
H         -0.18790        2.02630       -0.63990
H         -0.70550        2.61250        1.68760
H         -0.51780        0.90590        2.18640
H          3.01830        3.38080        1.61250
H          1.72730        3.70940        2.86520
H          1.97860        1.29360        3.70600
H          3.26420        1.01230        2.43660
