15
gdb 16118	4.45876	1.66511	1.46281	3.3177	65.83	-0.2758	0.0237	0.2996	859.7683	0.120934	-362.669773	-362.663149	-362.662205	-362.700491	25.26
N          0.04380       -1.14610       -0.10480
C          0.04020        0.00920       -0.03770
C          0.01530        1.43680        0.05680
C          0.33320        2.30090       -1.15240
C          1.28160        2.28820        0.00820
C          1.06440        3.35730        1.06500
O         -0.34550        3.41190        1.26150
C         -0.86540        2.09940        1.11940
H          0.63660        1.78280       -2.05380
H         -0.29230        3.17470       -1.30200
H          2.25390        1.82260       -0.09190
H          1.59070        3.08360        1.99260
H          1.38790        4.35720        0.76040
H         -1.91590        2.18870        0.82940
H         -0.80220        1.52760        2.05750
