19
gdb 15687	3.11073	1.76901	1.25273	3.6086	72.46	-0.2316	0.0384	0.27	1018.2863	0.167113	-365.120865	-365.11265	-365.111706	-365.154027	29.829
C         -0.14860        1.47920        0.08230
C          0.05990       -0.03390       -0.04200
N          0.72990       -0.43190       -1.26450
C          0.11450       -0.33970       -2.57810
C          1.08440       -1.13220       -3.48150
C          2.43330       -1.02080       -2.75630
C          2.05630       -0.78320       -1.29250
O          2.78500       -0.86670       -0.32430
H          0.81170        2.00280        0.06560
H         -0.76880        1.87190       -0.73000
H         -0.64970        1.71380        1.02660
H          0.68840       -0.39550        0.77590
H         -0.90610       -0.55260        0.01720
H         -0.89420       -0.76890       -2.56570
H          0.02070        0.70630       -2.90600
H          0.76830       -2.17860       -3.52480
H          1.10130       -0.74750       -4.50310
H          3.07180       -1.90090       -2.84880
H          3.01680       -0.15760       -3.09800
