15
gdb 4941	6.55603	1.17926	1.01958	2.5223	63.66	-0.1853	0.0551	0.2404	1085.8006	0.119425	-399.822946	-399.815035	-399.814091	-399.855205	29.205
O          0.35690        0.98440        0.77250
C          0.02170        0.05890       -0.25290
C         -1.39710       -0.42180       -0.16230
C         -2.16460       -0.43760        0.97610
N         -3.40190       -0.96260        0.64260
C         -3.41590       -1.27030       -0.68480
O         -4.56100       -1.79070       -1.19570
C         -2.19580       -0.95110       -1.23000
H         -0.32260        1.66740        0.75900
H          0.20640        0.48290       -1.25400
H          0.73090       -0.76970       -0.13190
H         -1.93430       -0.14140        1.98500
H         -4.18750       -1.08320        1.25750
H         -4.42240       -1.96290       -2.13160
H         -1.90310       -1.07400       -2.26190
