17
gdb 8222	5.51475	1.01932	0.99037	3.0312	66.43	-0.2494	0.0251	0.2745	1214.5181	0.141328	-401.009452	-401.000712	-400.999767	-401.045275	29.592
C          0.00600        1.51460        0.06460
C          0.01520       -0.00460        0.12610
O          0.14380       -0.61130        1.17230
N         -0.14950       -0.63450       -1.08240
C         -0.19830       -2.06250       -1.21790
C         -1.36660       -2.69740       -2.01030
O         -0.44770       -3.44820       -2.82730
C          0.68650       -2.73880       -2.29250
H          0.09650        1.91470       -0.94880
H         -0.92750        1.88030        0.50320
H          0.82620        1.89350        0.67760
H         -0.25270       -0.07170       -1.91160
H         -0.06940       -2.47460       -0.21820
H         -2.05520       -3.34370       -1.45530
H         -1.94940       -1.97270       -2.59840
H          1.11730       -2.03470       -3.01990
H          1.47320       -3.41500       -1.94040
