14
gdb 18223	5.11977	1.69472	1.38434	3.4822	64.72	-0.244	-0.0307	0.2133	854.8272	0.109018	-378.737634	-378.731292	-378.730348	-378.768257	23.892
O         -0.05750       -0.02290        0.00260
C         -0.01740        1.18450        0.02540
N          1.14230        1.92370       -0.02340
C          2.44050        1.39840       -0.06620
N          3.38560        2.25610       -0.00890
C          2.77350        3.56470        0.03610
C          1.96400        3.98520       -1.17030
C          1.25900        3.36270        0.00750
H         -0.91380        1.82890        0.08760
H          2.56220        0.32640       -0.14390
H          3.27680        4.31340        0.63530
H          1.81560        5.05030       -1.30750
H          2.06620        3.40830       -2.08340
H          0.53400        3.90190        0.60380
