19
gdb 17581	2.65313	2.44548	1.82365	1.682	75.17	-0.2248	0.0887	0.3135	846.1435	0.16519	-327.873805	-327.866099	-327.865155	-327.90511	30.316
C         -0.00950        1.57580        0.01010
C         -0.03510        0.07440        0.08320
C          1.12480       -0.81030       -0.34150
C          0.59230       -0.93270        1.05590
C          1.40060       -0.78220        2.30840
N         -0.59540       -1.82840        1.02060
C         -1.72240       -1.01520        1.52050
C         -1.26980       -0.79040        0.12890
H          0.97990        1.96630        0.27040
H         -0.24360        1.93090       -1.00100
H         -0.73690        2.02320        0.69650
H          0.97380       -1.62270       -1.04780
H          2.08070       -0.30150       -0.43390
H          2.14880        0.00880        2.19860
H          0.76890       -0.53220        3.16780
H          1.92870       -1.71390        2.54090
H         -2.62890       -1.59480        1.66890
H         -1.53450       -0.25820        2.27870
H         -1.86180       -1.10140       -0.72770
