16
gdb 18688	3.14437	2.33287	1.47919	4.1441	64.76	-0.2326	0.016	0.2487	836.9218	0.134159	-379.935387	-379.928705	-379.927761	-379.966312	25.815
O          0.03990       -0.00480       -0.37510
C          0.01550        1.17690       -0.08710
N         -1.14290        1.85350        0.18640
C         -1.26860        3.30850        0.15160
C         -0.13100        3.97770        0.92900
C          1.22410        3.39920        0.53490
N          1.71000        2.31430        1.39840
C          1.27250        2.00290        0.01840
H         -1.97640        1.30050        0.04610
H         -1.27600        3.67470       -0.88680
H         -2.23400        3.57580        0.59110
H         -0.15740        5.05560        0.74140
H         -0.27610        3.81920        2.00150
H          1.95840        4.09650        0.13980
H          2.72660        2.30990        1.43130
H          2.03020        1.71550       -0.70360
