18
gdb 1517	7.0586	1.25628	1.1677	3.3798	65.8	-0.2406	0.0374	0.278	1080.9387	0.158975	-327.023478	-327.014529	-327.013585	-327.058293	30.558
C          0.33860        1.36570        0.10400
C         -0.39140        0.05310       -0.19180
N          0.11650       -0.63130       -1.37020
C          0.93400       -1.72390       -1.29780
O          1.23570       -2.25420       -0.24230
C          1.45880       -2.22290       -2.64440
C          1.72190       -3.72920       -2.63600
H          1.40190        1.18260        0.28280
H          0.24870        2.07030       -0.73030
H         -0.08230        1.84550        0.99350
H         -0.26900       -0.64640        0.63770
H         -1.46490        0.23650       -0.32130
H         -0.05340       -0.21920       -2.27330
H          0.76790       -1.94690       -3.45000
H          2.39440       -1.68260       -2.84220
H          2.35530       -3.99090       -1.78630
H          0.78840       -4.29150       -2.53820
H          2.21490       -4.04410       -3.55990
