19
gdb 10211	3.34776	1.31458	1.03313	5.2806	69.54	-0.2453	0.013	0.2583	1171.638	0.165055	-402.223592	-402.214454	-402.21351	-402.258125	32.383
C          0.22560        1.72450       -0.10050
C         -0.15140        0.24070       -0.07540
N          0.53810       -0.56010       -1.08490
C          1.97320       -0.83610       -0.91040
C          2.35540       -2.32770       -0.85380
O          2.58820       -2.90360       -2.11090
C         -0.11100       -0.95350       -2.20320
O          0.36500       -1.61460       -3.11470
H          1.29670        1.87050        0.06860
H         -0.02920        2.17310       -1.06530
H         -0.31390        2.26330        0.68450
H          0.06000       -0.18760        0.91160
H         -1.22740        0.12820       -0.24000
H          2.54180       -0.37170       -1.72460
H          2.26780       -0.35140        0.02410
H          3.29360       -2.41170       -0.29170
H          1.58300       -2.86490       -0.27510
H          1.84590       -2.63430       -2.67850
H         -1.16210       -0.61270       -2.22550
