16
gdb 15524	3.0104	1.82786	1.16194	3.8197	71.08	-0.2438	-0.0604	0.1834	994.4554	0.129349	-383.761806	-383.753708	-383.752764	-383.794802	28.111
C          0.05270        1.50320        0.01880
C         -0.02200        0.01420       -0.04490
C         -1.08180       -0.80910        0.02970
C         -0.62780       -2.24120       -0.08820
O          0.79080       -2.17280       -0.23800
C          1.21830       -0.82250       -0.21900
C         -2.48770       -0.45640        0.19760
O         -3.37920       -1.27820        0.25330
H          0.69550        1.81960        0.84940
H          0.50730        1.90370       -0.89570
H         -0.92450        1.97140        0.14670
H         -0.88640       -2.83170        0.80180
H         -1.07590       -2.74720       -0.95460
H          1.74590       -0.57070       -1.15460
H          1.93540       -0.65540        0.60270
H         -2.71070        0.62920        0.27440
