17
gdb 6819	2.9623	1.74145	1.44663	4.4082	68.6	-0.2763	0.0279	0.3042	928.393	0.141108	-363.874681	-363.866298	-363.865354	-363.907211	31.018
C          0.34080        1.47040       -0.23310
C         -0.01180        0.00100       -0.04670
O         -1.39680       -0.18730        0.13050
C          0.70100       -0.95080       -1.06000
C          1.76860       -1.26780        0.01820
C          0.78390       -0.71960        1.09620
C          1.30620        0.06610        2.19890
N          1.73510        0.71490        3.05510
H          1.42040        1.61970       -0.32440
H         -0.12290        1.85090       -1.15150
H         -0.01470        2.06270        0.61480
H         -1.86830        0.42170       -0.44750
H          0.06340       -1.81200       -1.27240
H          1.04590       -0.51300       -1.99930
H          2.07920       -2.30580        0.13780
H          2.65730       -0.64030       -0.07090
H          0.15160       -1.52220        1.48480
