15
gdb 7972	3.81409	1.69667	1.21952	5.8658	66.79	-0.2266	-0.0187	0.2078	939.9909	0.119699	-399.844282	-399.836723	-399.835779	-399.876006	28.567
N          0.06060        1.32780        0.18630
C         -0.02930       -0.01300        0.03810
C         -1.15460       -0.78290        0.04250
C         -0.78740       -2.16990       -0.13270
O         -1.46780       -3.14660       -0.39500
C          0.74560       -2.27530        0.00990
O          1.27840       -3.17020       -0.93380
C          1.23240       -0.82890       -0.15720
H          0.92620        1.79870       -0.01310
H         -0.77040        1.89520        0.19400
H         -2.17420       -0.42430        0.09470
H          0.95960       -2.61680        1.03710
H          0.55730       -3.79490       -1.10860
H          1.62290       -0.69260       -1.17240
H          2.01910       -0.53690        0.54640
