20
gdb 10188	2.08234	1.57905	0.95239	0.739	78.19	-0.2605	0.0407	0.3013	1275.8805	0.173658	-348.970736	-348.960669	-348.959724	-349.005929	35.641
C          1.20260        1.58140       -0.13000
C          1.50370        0.09360       -0.18360
O          0.66180       -0.49360       -1.16260
C          0.81500       -1.89600       -1.30760
C         -0.34000       -2.39710       -2.18800
C         -1.71120       -2.14850       -1.55750
C          2.12150       -2.25180       -1.88160
C          3.18400       -2.54430       -2.36250
H          1.39670        2.04650       -1.10060
H          0.15420        1.75460        0.12940
H          1.83160        2.06900        0.62080
H          2.55950       -0.08120       -0.43750
H          1.32050       -0.37650        0.79730
H          0.73560       -2.37440       -0.31450
H         -0.26470       -1.89170       -3.15680
H         -0.18590       -3.46560       -2.37210
H         -2.51090       -2.49260       -2.21990
H         -1.81270       -2.68370       -0.60650
H         -1.85830       -1.08390       -1.36270
H          4.12400       -2.80340       -2.78360
