16
gdb 14404	3.43116	2.59537	2.07648	0.2653	63.09	-0.2417	0.0756	0.3173	718.7441	0.131392	-383.693694	-383.687604	-383.68666	-383.723514	24.925
C          0.05480        1.51140       -0.11460
C         -0.03900        0.02040       -0.05150
O          0.42870       -0.72040       -1.18460
C         -0.23960       -1.86830       -0.58230
C          0.67930       -2.15810        0.61800
C          0.33420       -0.81210        1.27720
O         -1.08840       -0.98220        1.55550
C         -1.26590       -0.88310        0.14370
H          1.10160        1.83220       -0.13520
H         -0.43910        1.89410       -1.01230
H         -0.42320        1.95130        0.76560
H         -0.51060       -2.64720       -1.29130
H          0.37400       -2.99320        1.25150
H          1.71610       -2.26620        0.29460
H          0.90750       -0.42610        2.11790
H         -2.28470       -0.74070       -0.21210
