17
gdb 4161	2.61063	1.80707	1.13007	2.0261	68.39	-0.2484	-0.0033	0.2451	1036.252	0.14151	-400.94272	-400.934458	-400.933514	-400.975663	30.357
O         -0.32370        1.55490        0.10700
C         -0.05200        0.18460       -0.09840
C         -1.32790       -0.65410       -0.02560
C         -1.21170       -2.21340        0.07820
C         -2.08240       -2.19490        1.37770
C         -1.98700       -0.68520        1.33950
N         -2.17990        0.27980        2.13850
O         -2.69790       -0.15760        3.36960
H         -0.80430        1.61910        0.94420
H          0.40720        0.09530       -1.08930
H          0.67450       -0.20130        0.63700
H         -2.01880       -0.33100       -0.81210
H         -1.61760       -2.77790       -0.76200
H         -0.18630       -2.54350        0.26200
H         -3.10330       -2.56330        1.23590
H         -1.66970       -2.67230        2.26990
H         -2.80460        0.66800        3.85450
