17
gdb 18995	4.2964	2.27215	2.09077	1.2155	66.18	-0.2308	0.0779	0.3087	717.8026	0.14614	-363.796134	-363.790651	-363.789707	-363.825393	23.332
C         -0.01590        1.50880       -0.22830
O          1.35910        1.63530        0.21110
C          1.46450        0.21000        0.44990
C          1.41230       -0.24820        1.91620
C          0.45230       -1.46590        1.75010
N         -0.61840       -0.43210        1.40540
C          0.12550        0.44630        2.40320
C         -0.03910        0.01030        0.10480
H         -0.70310        2.15290        0.33210
H         -0.11220        1.72630       -1.29890
H          2.25680       -0.25010       -0.14700
H          2.33920       -0.27690        2.49020
H          0.65100       -2.20240        0.96510
H          0.20920       -1.96810        2.68840
H         -0.17000        0.15930        3.41390
H          0.02570        1.52380        2.27520
H         -0.34040       -0.67370       -0.68800
