16
gdb 4785	6.71413	1.25367	1.07727	1.0743	69.59	-0.1654	0.0531	0.2185	1082.6263	0.131481	-379.933297	-379.925141	-379.924197	-379.965897	30.
C         -0.06960        1.43860        0.16960
N          0.26390        0.04520       -0.10590
C          0.71420       -0.74980        0.93140
C          0.65030       -2.09590        1.15690
C          1.39760       -2.32420        2.36620
N          1.52510       -3.56690        3.00510
C          1.84930       -1.11040        2.78010
O          1.42010       -0.12860        1.89580
H          0.81080        1.95130        0.56140
H         -0.35600        1.91940       -0.76860
H         -0.88730        1.56130        0.89580
H         -0.42830       -0.43190       -0.66480
H          0.13310       -2.83140        0.56110
H          1.66360       -4.32420        2.34780
H          2.27510       -3.58070        3.68440
H          2.41590       -0.76310        3.62540
