18
gdb 6783	5.30488	0.86758	0.76937	3.8505	66.79	-0.2407	0.0618	0.3025	1460.3443	0.153342	-418.28797	-418.278458	-418.277514	-418.323415	32.954
C         -0.12190        1.40820       -0.18990
O         -0.04930        0.01060       -0.03320
C          0.70240       -0.62540       -1.05030
C          0.64800       -2.12160       -0.79700
N         -0.72610       -2.58440       -0.82250
C         -1.02700       -3.87500       -1.18750
N         -2.35540       -4.22810       -0.96160
O         -0.21200       -4.65220       -1.65070
H          0.87560        1.87320       -0.15680
H         -0.59870        1.68800       -1.14240
H         -0.72120        1.80070        0.63530
H          0.27920       -0.39110       -2.04070
H          1.74780       -0.27670       -1.03550
H          1.19540       -2.66510       -1.56950
H          1.12960       -2.34030        0.16710
H         -1.35930       -2.08600       -0.21700
H         -3.04770       -3.49670       -1.03080
H         -2.60970       -5.07390       -1.44930
