24
gdb 7587	2.51165	1.59477	1.37214	0.1081	85.1	-0.2551	0.0818	0.337	1112.558	0.221597	-314.273731	-314.263634	-314.262689	-314.307724	38.246
C         -2.14050        0.24520        1.88250
C         -1.15580       -0.57060        1.02870
C         -0.98450        0.05920       -0.36330
C          0.18300       -0.78660        1.74250
C          0.98850        0.46790        2.04370
C          0.25260       -1.89470        2.77280
C          0.99470       -2.04060        1.46310
C          0.62060       -3.11210        0.46060
H         -1.80000        1.27740        2.01650
H         -3.12430        0.28700        1.40340
H         -2.26610       -0.19800        2.87550
H         -1.60870       -1.55870        0.88500
H         -0.59710        1.08150       -0.29680
H         -0.29310       -0.52090       -0.98210
H         -1.94520        0.10940       -0.88670
H          0.43500        1.16430        2.68290
H          1.91560        0.21430        2.56720
H          1.26640        1.00350        1.12940
H          0.81740       -1.72980        3.68500
H         -0.63370       -2.50850        2.90950
H          2.07000       -1.88710        1.53040
H         -0.45640       -3.29810        0.43020
H          0.94120       -2.84770       -0.55360
H          1.10340       -4.06110        0.72040
