15
gdb 13056	4.35524	1.22262	1.02181	2.9788	64.4	-0.2495	-0.0381	0.2115	1102.4931	0.117699	-399.825536	-399.817561	-399.816617	-399.859215	27.201
O          0.23730       -0.18480        0.23120
C          0.11250        0.95120       -0.13850
C          1.21590        2.00130       -0.06200
N          1.19380        2.91240       -1.17290
C          1.58310        2.77840       -2.58400
C          1.30250        4.30140       -2.73330
C          0.96360        4.27160       -1.22540
O          0.63930        5.05730       -0.37610
H         -0.84160        1.33510       -0.56710
H          1.04010        2.60560        0.83900
H          2.18260        1.49580        0.04780
H          2.62820        2.48240       -2.72490
H          0.93590        2.11670       -3.16800
H          2.16760        4.91710       -2.98410
H          0.46370        4.56660       -3.37860
