16
gdb 21207	5.25726	1.34808	1.09288	2.8888	68.69	-0.1801	0.0486	0.2286	1063.197	0.132561	-376.112088	-376.103797	-376.102853	-376.14477	30.043
C          0.06120        1.37920        0.18560
N         -0.04530        0.00460       -0.26890
C         -1.25950       -0.65330       -0.12890
N         -1.28880       -1.97190        0.02880
N         -2.62890       -2.26360        0.07810
C         -3.41060       -1.16790       -0.04170
N         -4.80390       -1.26820       -0.08910
C         -2.56190       -0.08360       -0.16830
H          1.08700        1.72440        0.03350
H         -0.59060        2.02400       -0.41310
H         -0.20210        1.52330        1.24600
H          0.72080       -0.58580        0.02450
H         -2.91920       -3.22490        0.06070
H         -5.18990       -1.82650        0.66340
H         -5.24280       -0.35740       -0.08250
H         -2.84400        0.95190       -0.25840
