20
gdb 6277	3.75263	1.02212	0.95991	1.2402	77.59	-0.2633	0.0326	0.2959	1313.3192	0.173607	-348.974538	-348.964435	-348.963491	-349.009739	36.586
C         -0.08400        1.56180       -0.12150
C          0.02730        0.03380       -0.02320
C          0.73650       -0.53750       -1.25850
C          0.74750       -0.42050        1.25830
C         -0.01540       -0.10780        2.56180
O         -1.33660       -0.64770        2.55340
C          0.74160       -0.56310        3.73210
C          1.36040       -0.98520        4.67270
H          0.90820        2.02960       -0.12440
H         -0.58980        1.85420       -1.04740
H         -0.65480        1.98920        0.70830
H         -0.98830       -0.37860        0.01330
H          1.76380       -0.16060       -1.33340
H          0.78660       -1.63110       -1.22280
H          0.21350       -0.25580       -2.17830
H          0.91540       -1.50510        1.22170
H          1.74130        0.04220        1.31890
H         -0.16460        0.97490        2.64190
H         -1.25730       -1.60290        2.65670
H          1.90200       -1.33850        5.51530
