13
gdb 16741	6.10572	1.52255	1.33866	4.0365	60.78	-0.2606	-0.0787	0.182	876.1245	0.095688	-398.592892	-398.586512	-398.585568	-398.623641	23.585
O         -0.09460        0.03580       -0.08500
C          0.04230        1.22870       -0.03590
C          1.36780        1.91360       -0.00840
N          2.52140        1.36760        0.02100
C          3.47510        2.44180        0.01490
C          3.43830        3.35150       -1.20050
C          2.64020        3.72570        0.00710
O          1.29590        3.27870        0.02810
H         -0.81340        1.93330        0.00010
H          4.39890        2.28450        0.55680
H          4.32930        3.94260       -1.37950
H          2.92360        3.00150       -2.08890
H          2.79920        4.62980        0.57940
