16
gdb 11055	3.55185	2.46078	2.08293	1.3956	63.82	-0.2426	0.0028	0.2454	727.0773	0.13132	-383.737311	-383.73094	-383.729996	-383.767312	25.906
C          0.07040        1.48970        0.01320
C         -0.04040       -0.00710        0.04220
O          0.62720       -0.58890       -1.12020
C          0.96470       -1.91270       -0.70660
C          0.35540       -1.96050        0.73300
O          0.64420       -0.60890        1.12450
C         -1.15450       -1.92580        0.54210
C         -1.40910       -0.69250        0.10480
H          1.12240        1.78250        0.01130
H         -0.40530        1.87960       -0.89010
H         -0.42360        1.92020        0.88770
H          0.53290       -2.65650       -1.38440
H          2.05380       -2.02520       -0.67450
H          0.78690       -2.68140        1.42410
H         -1.81720       -2.77720        0.61330
H         -2.33350       -0.27100       -0.26510
