15
gdb 21254	5.42387	1.38182	1.11085	2.6866	64.11	-0.1932	0.0534	0.2466	1027.4446	0.120353	-395.988312	-395.98042	-395.979475	-396.020436	28.701
C          0.16070        0.68070        0.65520
O          0.07020        0.79940       -0.75770
C          0.58600       -0.22820       -1.45260
C          1.19430       -1.41620       -1.09510
C          1.49250       -2.02440       -2.34580
N          2.18340       -3.22180       -2.54260
N          1.10010       -1.29140       -3.37830
N          0.55160       -0.17640       -2.79960
H         -0.38280       -0.20320        1.01000
H          1.20680        0.61360        0.97700
H         -0.29380        1.58130        1.06950
H          1.41400       -1.77950       -0.10630
H          1.89250       -3.95620       -1.91090
H          2.10190       -3.53340       -3.50270
H          0.16570        0.55390       -3.37050
