15
gdb 20981	4.72715	1.61316	1.22935	4.6825	64.09	-0.2265	-0.0298	0.1967	946.4699	0.118823	-395.929793	-395.922104	-395.92116	-395.962168	26.974
C          0.01870        1.42540        0.09700
N         -0.00900        0.00830       -0.22230
C          1.21000       -0.74150        0.04410
C         -1.19340       -0.66730       -0.09000
N         -1.26650       -1.97040        0.08070
O         -2.61620       -2.26450        0.08840
N         -3.36930       -1.14460       -0.05150
C         -2.53130       -0.15500       -0.15960
H          0.93700        1.85960       -0.30660
H         -0.82290        1.94000       -0.37250
H         -0.01000        1.62490        1.17970
H          1.36520       -0.92650        1.11770
H          1.15910       -1.70740       -0.46090
H          2.06280       -0.17820       -0.34320
H         -2.88620        0.85530       -0.28150
