13
gdb 4860	5.19138	1.4822	1.20757	1.4901	56.53	-0.2114	0.0292	0.2406	944.8267	0.095682	-435.755731	-435.748515	-435.747571	-435.787701	25.62
C         -0.04410        1.36050       -0.03030
O          0.64430        0.11150        0.13490
C          0.85230       -0.58010       -0.98190
C          0.52030       -1.81700       -1.40300
N          1.11650       -2.05690       -2.65050
C          1.74700       -0.95990       -2.89490
O          2.47260       -0.63510       -3.96430
O          1.66400       -0.00030       -1.95790
H          0.54200        2.04900       -0.64650
H         -1.02560        1.19820       -0.48990
H         -0.16570        1.77450        0.97110
H         -0.08900       -2.55210       -0.90510
H          2.44560       -1.39880       -4.55520
