13
gdb 1052	7.73587	2.15357	1.70266	2.1716	55.34	-0.2009	0.0513	0.2522	703.9166	0.103673	-340.667053	-340.660679	-340.659735	-340.697351	22.797
C         -0.00110        1.37530        0.00830
O         -0.02300       -0.05330        0.00310
C         -1.24820       -0.59240        0.01050
N         -2.40190        0.02140        0.02160
C         -3.33890       -1.00170        0.02490
C         -2.73110       -2.22150        0.01570
N         -1.36800       -1.94690        0.00630
H          1.05290        1.65520        0.00120
H         -0.50940        1.77330       -0.87470
H         -0.49560        1.76670        0.90200
H         -4.39590       -0.78570        0.03380
H         -3.10710       -3.23020        0.01490
H         -0.60800       -2.60480       -0.00210
