18
gdb 8160	3.65158	1.74062	1.58543	2.6708	66.96	-0.2372	0.0688	0.306	877.1437	0.154388	-384.93439	-384.926937	-384.925992	-384.965465	29.956
O         -0.66630        1.14050        0.86520
C         -0.02290        0.11650        0.10650
C          0.89470       -0.78330        0.97950
C          0.02060       -1.93510        1.44380
C         -1.34390       -1.60010        2.02900
C         -1.22900       -1.95720        0.58180
O         -1.86330       -3.13530        0.18600
C         -1.12160       -0.82090       -0.42760
H          0.01910        1.65730        1.30090
H          0.54350        0.57490       -0.71600
H          1.72550       -1.16480        0.37280
H          1.33900       -0.20280        1.79850
H          0.48600       -2.86280        1.75800
H         -1.78520       -2.36560        2.65740
H         -1.56710       -0.57590        2.30260
H         -1.37060       -3.50420       -0.55610
H         -2.05650       -0.27400       -0.57880
H         -0.81690       -1.23660       -1.39720
