18
gdb 20268	4.32314	2.55966	2.31787	0.0542	73.83	-0.2582	0.0978	0.3561	690.7471	0.158111	-310.622578	-310.617472	-310.616528	-310.65131	23.046
C         -0.03460        1.59350        0.04680
C          1.50430        1.40660        0.02620
C          1.85760        0.71180        1.35290
C          3.01010       -0.26990        1.01900
C          1.93760       -0.99710        0.18990
C          1.30780        0.05250       -0.77570
C         -0.06260        0.05670       -0.01680
C          0.82050       -0.47160        1.15430
H         -0.48110        2.10070        0.90930
H         -0.40840        2.04380       -0.87810
H          2.17340        2.19560       -0.31930
H          1.87170        1.32820        2.25250
H          3.89690        0.12860        0.51350
H          3.31680       -0.85820        1.88940
H          2.02650       -2.03090       -0.14310
H          1.41620        0.04590       -1.85880
H         -0.93520       -0.52170       -0.31940
H          0.44610       -1.01240        2.02160
