13
gdb 941	5.80863	2.66674	1.83068	3.1429	63.26	-0.2124	-0.0137	0.1987	656.1003	0.105287	-303.556664	-303.55101	-303.550066	-303.585747	22.057
N         -0.01440        1.41090        0.14680
C          0.01940        0.02210        0.04520
C         -1.16600       -0.73120        0.02450
N         -1.20720       -2.05920       -0.01260
C         -0.04710       -2.72190       -0.03300
C          1.18600       -2.07640       -0.01940
C          1.22350       -0.68920        0.01970
H          0.79610        1.88750       -0.22110
H         -0.87180        1.83890       -0.17160
H         -2.12580       -0.21490        0.04070
H         -0.10820       -3.80610       -0.06370
H          2.10550       -2.65160       -0.04110
H          2.17070       -0.15750        0.03370
