16
gdb 3328	6.38394	1.80598	1.64978	2.6465	59.83	-0.2311	0.0713	0.3024	778.0691	0.137609	-325.715957	-325.709188	-325.708244	-325.746759	25.107
O         -0.05860        1.42410       -0.18210
C          0.06700        0.03180        0.07320
C         -1.32560       -0.56560       -0.00100
C         -2.05550       -0.68210       -1.36600
N         -2.33630       -2.15190       -1.16080
C         -1.01340       -2.79210       -1.09430
C         -1.49540       -2.08000        0.10740
H          0.82020        1.81420       -0.17370
H          0.72950       -0.44790       -0.66390
H          0.49660       -0.15830        1.07100
H         -1.96010       -0.04770        0.72320
H         -2.98920       -0.12140       -1.42360
H         -1.45810       -0.47280       -2.26010
H         -1.06780       -3.87660       -1.08070
H         -0.19990       -2.38980       -1.69470
H         -1.78690       -2.61210        1.00800
