10
gdb 8977	4.66164	1.00856	0.82917	2.1258	74.01	-0.2686	-0.1206	0.148	1241.1403	0.056957	-380.091854	-380.083936	-380.082991	-380.125051	26.496
O         -0.89620        1.50400        0.15710
C          0.16120        1.04880       -0.17930
C          1.42830        1.88900       -0.40110
O          2.44960        1.32900       -0.74260
C          1.31130        3.30370       -0.18410
C          1.22320        4.50030       -0.00310
C          1.12020        5.83670        0.20040
C          1.03070        7.02750        0.38110
H          0.34560       -0.02900       -0.36900
H          0.94820        8.07490        0.54100
