20
gdb 15885	2.64904	1.75782	1.21687	2.7292	75.26	-0.235	-0.0157	0.2193	1069.1377	0.175478	-349.025071	-349.016124	-349.015179	-349.058762	32.836
C          0.11460        1.73860       -0.14650
C          0.35930        0.24630        0.10870
C          0.65960       -0.51790       -1.17850
C          0.89460       -2.07610       -1.20500
C          0.33620       -2.84770       -0.01270
C          0.00500       -2.17900       -2.48650
C         -0.46940       -0.74710       -2.19680
O         -1.42400       -0.10480       -2.53340
H          0.99910        2.21320       -0.58650
H         -0.72020        1.87780       -0.83820
H         -0.11690        2.26380        0.78520
H          1.19660        0.11760        0.80660
H         -0.52010       -0.18780        0.59800
H          1.48840       -0.02690       -1.70850
H          1.93960       -2.35010       -1.36690
H         -0.72470       -2.62670        0.15050
H          0.42450       -3.92640       -0.17890
H          0.87200       -2.60650        0.91080
H          0.57830       -2.23290       -3.41760
H         -0.77070       -2.94950       -2.50840
