15
gdb 13550	3.75114	1.36311	1.12207	4.2141	62.1	-0.2829	0.0002	0.2831	1047.101	0.116715	-399.780274	-399.77167	-399.770726	-399.814102	29.895
C          0.08230        1.54560       -0.25770
C         -0.03250        0.07640        0.05330
O          1.16870       -0.71200        0.04070
C          0.46530       -0.58260        1.27050
C          1.16770        0.17180        2.39180
O          0.24830        0.68200        3.33970
C          2.17660       -0.69490        3.03590
N          2.92750       -1.39480        3.56620
H          0.94600        2.00690        0.22460
H          0.18740        1.68860       -1.33770
H         -0.82150        2.07140        0.06660
H         -0.87230       -0.42090       -0.43590
H         -0.03600       -1.49300        1.60800
H          1.68790        1.03730        1.97480
H         -0.13380       -0.05750        3.82660
