15
gdb 259	8.00355	1.98325	1.71486	2.7328	54.59	-0.2267	-0.0252	0.2016	722.1956	0.129063	-287.681216	-287.673848	-287.672904	-287.712476	25.118
C         -0.12800        1.49350        0.11520
N          0.02210        0.04670        0.03970
C          0.76340       -0.47730        1.17640
C         -1.25230       -0.61890       -0.15580
C         -1.78640       -0.39590       -1.56260
O         -2.95260       -0.37880       -1.85570
H          0.85810        1.96510        0.16170
H         -0.63850        1.86810       -0.77790
H         -0.70900        1.82160        0.99810
H          0.25610       -0.31030        2.14530
H          0.91860       -1.55380        1.05540
H          1.74540        0.00360        1.22590
H         -1.09880       -1.70350       -0.06030
H         -2.03500       -0.33960        0.57300
H         -0.98150       -0.27480       -2.32330
