17
gdb 13195	3.99939	1.42776	1.17738	2.7284	65.44	-0.2346	0.032	0.2666	1047.4786	0.142486	-401.012502	-401.004074	-401.00313	-401.046404	29.073
C         -0.34300        1.35860        0.98360
N          0.03590       -0.03720        0.93310
C          0.81990       -0.55140       -0.04410
O          1.31340        0.07900       -0.96460
C          1.06980       -2.05060        0.08770
C          2.49760       -2.45710        0.51920
C          1.79980       -3.05730        1.75610
O          0.49420       -2.65040        1.27460
H          0.11580        1.85290        0.12580
H         -1.43060        1.47880        0.92680
H          0.01240        1.83670        1.90350
H         -0.29580       -0.69330        1.62460
H          0.70610       -2.53360       -0.82620
H          2.98910       -3.17620       -0.13590
H          3.17180       -1.62130        0.70680
H          1.86400       -4.14580        1.86020
H          2.04100       -2.59160        2.71860
