20
gdb 10952	4.96298	1.23518	1.11797	1.1143	75.44	-0.2425	0.0798	0.3223	1126.6964	0.176752	-348.974373	-348.965918	-348.964974	-349.00702	32.088
C          0.05140        1.56430        0.07090
C          0.03580        0.06440        0.00250
C         -0.92540       -0.78770        0.78100
C          0.55580       -0.97900        1.00180
C          1.19230       -1.78670       -0.13630
C          0.83870       -3.25550       -0.27520
O          1.45600       -3.73480       -1.46380
C          0.60390       -0.76350       -1.16440
H          1.04090        1.96620       -0.17710
H         -0.66760        2.00200       -0.63300
H         -0.21240        1.91910        1.07290
H         -1.43980       -0.28090        1.59250
H         -1.52890       -1.54700        0.28850
H          1.00030       -0.82220        1.97870
H          2.28280       -1.70170       -0.11190
H          1.19630       -3.80570        0.61130
H         -0.25390       -3.38370       -0.31900
H          1.19380       -4.65110       -1.59070
H         -0.13120       -1.15720       -1.87440
H          1.38280       -0.24450       -1.72760
