14
gdb 2473	5.40636	2.76153	2.53883	3.0411	58.3	-0.2554	0.0314	0.2868	587.3888	0.116396	-324.567893	-324.562755	-324.56181	-324.59659	20.776
N         -0.07060        1.22320       -0.02130
C         -0.06540       -0.03530       -0.00680
O          1.04170       -0.86460       -0.02620
C          0.41860       -2.18400        0.00550
C         -0.71190       -2.03830       -1.03770
C         -1.21830       -1.00730        0.03470
C         -0.65580       -2.01350        1.10280
H          0.88480        1.58550       -0.05050
H          1.19090       -2.94940       -0.00590
H         -0.43820       -1.66420       -2.02600
H         -1.35330       -2.91810       -1.10920
H         -2.22040       -0.59020        0.05610
H         -1.29200       -2.89090        1.22820
H         -0.33090       -1.61670        2.06650
