14
gdb 9813	3.20182	1.92494	1.32432	2.2706	64.87	-0.2647	-0.0669	0.1979	903.3007	0.103637	-382.496871	-382.488608	-382.487664	-382.529721	29.418
C         -0.13450        1.41100       -1.02170
C         -0.09770        0.29170       -0.01230
C          0.88190       -0.81350       -0.12520
O          1.05660        0.21440        0.83720
C         -1.40460        0.00160        0.68720
O         -2.45160        0.46760        0.29130
C         -1.34420       -0.85810        1.85720
C         -1.34510       -1.57570        2.82340
H          0.85470        1.54850       -1.46340
H         -0.85700        1.18910       -1.81090
H         -0.44160        2.34630       -0.54570
H          0.64780       -1.79680        0.27790
H          1.56990       -0.79620       -0.96950
H         -1.34620       -2.20330        3.68150
