15
gdb 11774	4.68228	1.73591	1.57837	4.665	65.09	-0.2727	-0.0008	0.2718	824.9496	0.120858	-362.654801	-362.648468	-362.647524	-362.685142	24.849
N          0.01350       -1.13110       -0.04450
C         -0.01240        0.02380       -0.02370
C         -0.02160        1.47120        0.04390
C         -0.88350        2.26280        1.06090
C         -0.74050        3.27810       -0.09280
C          0.75190        3.66580       -0.06850
C          1.33660        2.22240        0.04610
O         -0.74480        2.14730       -1.03050
H         -1.89140        1.85640        1.13280
H         -0.45990        2.49130        2.04110
H         -1.48880        4.03600       -0.31580
H          1.04810        4.16370       -0.99310
H          1.01040        4.30760        0.77730
H          1.91120        2.04460        0.95750
H          1.93870        1.93380       -0.81610
