11
gdb 21914	3.61874	1.87164	1.23361	1.7746	54.61	-0.2648	-0.0656	0.1992	867.0789	0.072257	-434.539298	-434.53278	-434.531835	-434.570275	23.279
O          0.11680        1.32220        0.15520
C          0.07840       -0.01120        0.06750
N          0.07630       -0.63900       -1.08160
O          0.03080       -2.00400       -0.74110
C          0.00800       -2.12480        0.57980
C          0.03570       -0.90090        1.18860
C          0.02410       -0.59830        2.61970
O         -0.01370       -1.44290        3.48640
H          0.14060        1.68370       -0.74180
H         -0.02760       -3.12770        0.97690
H          0.05270        0.48330        2.86340
