11
gdb 347	8.75975	2.3713	1.88895	3.0753	50.21	-0.2527	-0.0407	0.2121	618.7695	0.084889	-281.484877	-281.478065	-281.477121	-281.515408	22.345
C         -0.00670        1.44720       -0.02390
N          0.00330        0.00030        0.07410
C          0.64960       -0.62470        1.09690
N          1.19640        0.01880        2.06050
C          0.64230       -2.07810        1.00160
N          0.66500       -3.23340        0.95770
H          1.00110        1.85270       -0.17420
H         -0.64290        1.73680       -0.86180
H         -0.40410        1.87920        0.89830
H         -0.25560       -0.54800       -0.72740
H          1.59420       -0.61570        2.74760
