17
gdb 12236	3.29544	1.55857	1.1818	1.2956	65.64	-0.2628	0.0217	0.2846	1024.1163	0.14188	-400.997438	-400.989157	-400.988213	-401.030412	30.08
C         -0.28190        1.54740        0.19590
C         -0.08320        0.04750        0.00700
C          0.53010       -0.53290       -1.29670
C          1.13910        0.38680       -2.33660
O          1.92600       -0.34840       -3.25370
O          1.60510       -1.15910       -0.50350
C          1.12540       -0.59350        0.66350
N          1.57840       -0.62200        1.83100
H          0.61870        2.11650       -0.04800
H         -1.10350        1.91750       -0.42500
H         -0.52750        1.75200        1.24140
H         -0.99860       -0.48540        0.28120
H         -0.05880       -1.31420       -1.78550
H          0.34550        0.87180       -2.91530
H          1.72730        1.17480       -1.84350
H          2.58950       -0.81730       -2.73410
H          2.44340       -1.16240        1.88660
