17
gdb 5255	7.11309	1.07854	0.94947	1.7774	71.19	-0.1891	0.0318	0.2208	1212.4474	0.143138	-363.881051	-363.873243	-363.872298	-363.913566	28.873
C         -0.00640        1.53060       -0.00100
C         -0.04700        0.00790        0.06560
N         -1.40370       -0.48520       -0.11780
C         -1.60840       -1.86050       -0.03530
C         -0.68100       -2.86460       -0.05850
O         -1.30590       -4.08610       -0.02460
C         -2.63400       -3.84640        0.03510
C         -2.88970       -2.51350        0.02970
H          1.01940        1.89370        0.10620
H         -0.40440        1.88830       -0.95500
H         -0.60100        1.97710        0.80470
H          0.57200       -0.41390       -0.73670
H          0.39270       -0.34340        1.01590
H         -2.08380        0.04130        0.41460
H          0.39280       -2.88860       -0.10850
H         -3.26890       -4.71650        0.07410
H         -3.85840       -2.03880        0.05920
