16
gdb 5625	3.24222	1.9396	1.2254	2.1387	67.97	-0.1718	0.0583	0.23	958.1946	0.131155	-379.932234	-379.923796	-379.922852	-379.965001	30.485
C         -0.04140        1.33250       -0.04930
O         -0.02690       -0.07700        0.00640
C          0.61950       -0.60930        1.08310
C          1.26560        0.00860        2.13340
N          1.76130       -0.99300        2.93560
C          1.42930       -2.22570        2.41710
C          0.71910       -2.02090        1.25440
N          0.12120       -2.96990        0.39960
H          0.97830        1.74100       -0.09470
H         -0.58310        1.61140       -0.95520
H         -0.55190        1.76040        0.82520
H          1.41670        1.04780        2.36740
H          2.26990       -0.84610        3.78680
H          1.72000       -3.13920        2.90890
H          0.72570       -3.76110        0.21560
H         -0.12610       -2.53870       -0.48300
