12
gdb 20332	6.65469	1.38396	1.16899	5.7535	60.31	-0.2846	-0.0196	0.265	936.5708	0.084128	-373.639571	-373.632696	-373.631751	-373.672011	23.859
C         -0.26540       -0.94130       -0.81390
C         -0.06400        0.06420       -0.19050
C          0.15630        1.28910        0.56340
N          1.40990        1.94800        0.19920
C          2.15430        1.90150       -0.91970
N          3.17210        2.72420       -0.78690
N          3.03240        3.28300        0.44440
N          1.98350        2.83000        1.04580
H         -0.44380       -1.83710       -1.35750
H         -0.67180        1.98940        0.40260
H          0.20660        1.08720        1.63740
H          1.93370        1.27310       -1.76550
