22
gdb 13278	6.31991	0.78916	0.74371	1.5844	79.35	-0.2404	0.0889	0.3293	1606.7569	0.199924	-350.197065	-350.187723	-350.186778	-350.232157	33.157
C          0.11980        1.54030       -0.09260
C          0.05840        0.01210       -0.02060
C          0.69520       -0.55500        1.25220
C          0.63580       -2.08420        1.33500
C          1.31770       -2.63130        2.57580
C          1.58180       -4.15180        2.66500
C          3.06050       -3.74150        2.80670
O          2.74270       -2.35120        2.59620
H          1.15590        1.89540       -0.06650
H         -0.33860        1.91710       -1.01250
H         -0.40590        1.99780        0.75300
H         -0.98800       -0.31650       -0.08170
H          0.56110       -0.41650       -0.89790
H          1.74490       -0.24250        1.31200
H          0.19620       -0.12410        2.13180
H         -0.40970       -2.42430        1.33530
H          1.11320       -2.52380        0.44910
H          0.83980       -2.21960        3.47790
H          1.13920       -4.67150        3.51590
H          1.34610       -4.69660        1.74810
H          3.49600       -3.91480        3.79960
H          3.75280       -4.12440        2.04760
