19
gdb 12970	2.2995	2.23749	1.76698	1.7354	71.6	-0.2248	0.061	0.2859	893.9892	0.164498	-365.01995	-365.011444	-365.0105	-365.052206	32.175
C         -0.09460        1.55840       -0.06100
C          0.05440        0.06260        0.11560
N          1.24800       -0.72750       -0.26930
C          2.44770        0.09570        0.11240
C          2.05570        0.05530        1.61390
O          1.86940        1.24730        2.35200
C          0.77380       -0.65510        1.19540
C          0.19750       -1.82650        1.93670
H          0.67670        2.12750        0.45560
H         -0.08690        1.81980       -1.12560
H         -1.06030        1.87260        0.34860
H         -0.83170       -0.48190       -0.21000
H          3.36320       -0.45120       -0.12360
H          2.49070        1.08440       -0.35270
H          2.70770       -0.63660        2.16350
H          2.72970        1.55050        2.65910
H         -0.29540       -1.49160        2.85720
H         -0.54490       -2.34930        1.32700
H          0.97540       -2.54650        2.21390
