20
gdb 17965	2.55595	2.27498	1.39684	1.3518	75.85	-0.2366	0.0101	0.2467	944.0479	0.179577	-348.999821	-348.992348	-348.991403	-349.031206	29.553
C          0.03460        1.46610        0.11690
C          1.44880        2.06180       -0.01330
C          2.25750        1.61880       -1.25550
C          1.48770        1.74570       -2.54140
C          0.67150        0.80770       -3.02360
C          0.41870       -0.53180       -2.36480
O         -0.55200       -0.49830       -1.32390
C         -0.10900       -0.06290       -0.04780
H         -0.34330        1.74000        1.10960
H         -0.64380        1.92930       -0.60610
H          1.35850        3.15540       -0.00890
H          2.03710        1.80370        0.87660
H          3.17690        2.21260       -1.30380
H          2.57270        0.57910       -1.11460
H          1.56800        2.69480       -3.06880
H          0.10980        1.00900       -3.93240
H          0.01800       -1.23330       -3.10290
H          1.35740       -0.96260       -1.98370
H          0.82650       -0.57800        0.22840
H         -0.88380       -0.42190        0.63730
