17
gdb 2554	3.69485	1.75261	1.27766	2.8475	56.49	-0.2502	0.0631	0.3133	922.84	0.147544	-383.973315	-383.964834	-383.963889	-384.006032	30.153
O          0.10630        1.41670       -0.16030
C          0.02270       -0.00930       -0.04220
C         -1.42140       -0.53230       -0.03430
C         -2.17550       -0.13910       -1.31580
O         -2.37500        1.25380       -1.43740
C         -1.43630       -2.04730        0.16610
O         -0.83320       -2.33880        1.42020
H         -0.21900        1.79670        0.66290
H          0.55180       -0.40020       -0.91970
H          0.55380       -0.35760        0.85010
H         -1.95000       -0.08140        0.81770
H         -1.63450       -0.54680       -2.18940
H         -3.17150       -0.59830       -1.31630
H         -1.51260        1.66110       -1.27210
H         -2.47590       -2.40830        0.13330
H         -0.89290       -2.53870       -0.65810
H         -0.80010       -3.29400        1.52520
