19
gdb 16430	3.32557	2.20716	1.6835	1.6971	75.69	-0.2251	0.0857	0.3108	856.5654	0.165333	-327.839123	-327.831725	-327.830781	-327.870172	29.223
C         -0.17820        1.61020       -0.02120
C         -0.02640        0.09900        0.01650
C          1.19390       -0.56640       -0.62860
C          2.16070       -0.23890        0.54730
C          2.52410       -1.71520        0.62740
N          1.04350       -1.81810        0.27550
C          0.75440       -0.56530        1.16720
C          0.37020       -0.70000        2.61080
H          0.76300        2.11860        0.21420
H         -0.49990        1.94800       -1.01220
H         -0.93000        1.94850        0.70000
H         -0.96730       -0.41640       -0.21230
H          1.45380       -0.68530       -1.68280
H          2.77910        0.65310        0.69500
H          3.18130       -2.12510       -0.14700
H          2.77840       -2.14200        1.60310
H          1.11670       -1.26940        3.17430
H          0.27610        0.28630        3.07820
H         -0.59140       -1.21520        2.70330
