18
gdb 13070	3.47755	1.28323	1.07823	1.7392	76.75	-0.2426	0.0461	0.2887	1163.256	0.152818	-347.772158	-347.763305	-347.762361	-347.806535	31.632
C         -0.13260        1.44980       -0.00920
C         -0.06000       -0.00540        0.00110
C          0.04480       -1.20770        0.00880
C          0.08750       -2.65850        0.01210
C          0.22380       -3.29510        1.43670
C         -1.32020       -3.42030        1.50810
C         -1.36180       -3.28340       -0.03790
O         -2.38770       -2.57450       -0.66040
H          0.85670        1.89480        0.14420
H         -0.51880        1.82370       -0.96380
H         -0.78940        1.82390        0.78380
H          0.78530       -3.02220       -0.74780
H          0.71870       -4.26780        1.38090
H          0.71820       -2.68620        2.19390
H         -1.74990       -4.32110        1.95150
H         -1.76970       -2.54200        1.98060
H         -1.31980       -4.26590       -0.51750
H         -2.24910       -1.64000       -0.45470
