19
gdb 1300	6.92163	1.06106	0.96842	0.4474	65.05	-0.2482	0.0717	0.3199	1230.4102	0.169192	-348.045948	-348.036728	-348.035784	-348.079973	31.914
C          0.02290        1.37530       -0.03240
O          0.03310       -0.03050       -0.00930
C          0.66240       -0.55350        1.14200
C          0.63720       -2.07360        1.05760
C          1.32810       -2.75070        2.24680
C          1.23740       -4.27510        2.17640
O          2.68330       -2.32030        2.38110
H          1.04250        1.79330       -0.01730
H         -0.47190        1.68610       -0.95610
H         -0.52860        1.79610        0.82400
H          1.70090       -0.19640        1.21670
H          0.13930       -0.21280        2.05350
H         -0.40340       -2.41260        0.99360
H          1.12530       -2.38550        0.12370
H          0.85000       -2.41040        3.17460
H          0.19590       -4.61230        2.18420
H          1.70070       -4.64880        1.25450
H          1.75670       -4.72500        3.02690
H          3.16430       -2.63530        1.60730
