17
gdb 19665	4.42318	2.07002	1.96402	2.8959	66.99	-0.2214	0.0678	0.2893	748.813	0.145243	-363.795884	-363.789915	-363.788971	-363.825565	24.968
O          0.06180        1.48750       -0.04790
C          0.01440        0.08740        0.04190
C          0.12670       -0.64420        1.41470
C         -0.99780        0.07920        2.17570
N         -2.14580       -0.33680        1.30630
C         -2.07720       -1.83550        1.51960
C         -0.75400       -1.80190        0.76600
C         -1.34600       -0.58620       -0.01270
H          0.98290        1.76480       -0.01450
H          0.66390       -0.39180       -0.70510
H          1.08630       -0.83240        1.89530
H         -1.15490       -0.26050        3.20170
H         -0.87730        1.16340        2.16290
H         -2.12140       -2.15520        2.56580
H         -2.86880       -2.33070        0.94990
H         -0.24870       -2.65270        0.30890
H         -1.98190       -0.63830       -0.89400
