20
gdb 16066	3.08286	1.66621	1.41194	1.2772	75.	-0.2386	0.0777	0.3163	998.9052	0.176841	-348.97791	-348.96948	-348.968535	-349.010559	32.049
C          0.05110        1.53860       -0.16240
C          0.00670        0.02750        0.10580
C         -1.39560       -0.52020        0.11200
C         -2.43200       -0.24400        1.21680
C         -2.94430       -1.71260        1.10420
C         -1.92200       -1.97780       -0.00580
C         -2.09770       -0.98410       -1.12090
O         -3.34040       -0.43950       -1.47220
H          1.07960        1.91270       -0.14830
H         -0.38420        1.77640       -1.13840
H         -0.51540        2.09040        0.59510
H          0.60060       -0.49890       -0.65210
H          0.48520       -0.18670        1.07110
H         -1.96000       -0.04260        2.18190
H         -3.15760        0.54340        1.00090
H         -2.74840       -2.29380        2.00750
H         -3.99470       -1.83950        0.82560
H         -1.37000       -2.90090       -0.15050
H         -1.42910       -1.14950       -1.96800
H         -3.86810       -1.13850       -1.87270
