17
gdb 4175	3.40608	1.81942	1.34827	1.1585	72.13	-0.2299	0.0148	0.2448	932.2433	0.141629	-363.793275	-363.785534	-363.784589	-363.825016	29.604
C         -0.09050        1.61810       -0.01140
C          0.06210        0.10070       -0.00150
C          0.71570       -0.62190       -1.20400
C          2.16250       -0.26780       -1.32610
C          1.75840       -1.27960       -0.27010
C          1.12560       -0.57370        0.87420
N          1.34030       -0.68770        2.11800
O          0.43800        0.11390        2.85590
H          0.85090        2.11960       -0.25420
H         -0.83570        1.92530       -0.75290
H         -0.41340        1.97000        0.97150
H         -0.90190       -0.36360        0.23970
H          0.16800       -1.09400       -2.00960
H          2.67770       -0.69820       -2.17920
H          2.53260        0.71050       -1.03450
H          2.15070       -2.28790       -0.26090
H          0.70600       -0.06860        3.76240
