17
gdb 8447	4.07859	1.87077	1.61497	3.9444	68.35	-0.2367	0.0232	0.2598	842.5786	0.143737	-363.882703	-363.875888	-363.874943	-363.913207	27.508
C         -0.04970        1.53300        0.00270
C          0.05620        0.03110        0.01030
C          1.01220       -0.78130       -0.91110
C          0.64610       -1.92480        0.08710
C          0.64580       -0.80810        1.19240
C         -0.87220       -2.02960       -0.12660
O         -1.60220       -2.98750       -0.11060
N         -1.21450       -0.68420       -0.28950
H          0.92840        1.98560        0.18920
H         -0.41780        1.89280       -0.96340
H         -0.73550        1.88650        0.78140
H          0.71940       -0.89170       -1.95740
H          2.05510       -0.46850       -0.82200
H          1.19360       -2.85960        0.17150
H          1.65400       -0.50370        1.48500
H          0.01500       -0.95530        2.07350
H         -2.09120       -0.35830        0.09420
