17
gdb 12749	3.23138	1.7976	1.46772	2.2831	74.7	-0.2263	0.0515	0.2777	920.9469	0.141271	-326.651109	-326.643273	-326.642329	-326.682933	30.106
C         -0.08470        1.51800       -0.00460
C          0.10350        0.03460        0.03760
N         -0.76410       -0.85270        0.84330
C          0.70910       -0.88640        1.03950
C          1.24300       -1.82560       -0.04260
C          0.64480       -0.83950       -1.12490
C         -0.29220       -1.34210       -2.10940
C         -1.06350       -1.75130       -2.93630
H          0.79190        2.01650       -0.43210
H         -0.95350        1.78470       -0.61760
H         -0.24500        1.92290        1.00070
H         -1.15400       -0.27820        1.59120
H          1.14370       -0.67150        2.00850
H          2.33180       -1.88090       -0.09610
H          0.81410       -2.82900       -0.03370
H          1.46400       -0.31170       -1.62470
H         -1.75280       -2.11760       -3.65580
