12
gdb 13062	4.72358	1.24496	1.0375	4.289	52.97	-0.2905	-0.027	0.2635	1038.2551	0.082655	-455.644142	-455.636922	-455.635978	-455.677024	24.176
O         -0.14660        0.03120       -0.07700
C         -0.07120        1.21600       -0.01970
O          1.10880        1.87500       -0.16720
C          1.09970        3.27910       -0.10520
C          2.31780        3.92820        0.57250
O          2.62650        4.64510       -0.66600
C          1.62510        4.01570       -1.36090
O          1.35620        4.09390       -2.51160
H         -0.92060        1.90200        0.16110
H          0.13020        3.66370        0.23050
H          2.12170        4.62360        1.38960
H          3.11040        3.22330        0.82770
