16
gdb 14575	14.29154	0.65823	0.63674	1.0074	74.09	-0.2607	0.0283	0.2889	1663.9321	0.126541	-346.519121	-346.509781	-346.508836	-346.553916	32.291
C         -0.01890       -1.18590       -0.00410
C         -0.01430        0.01570        0.00200
C          0.02860        1.47150        0.00910
C          1.46410        2.00660       -0.00130
O          1.38750        3.41590        0.00670
C          2.66300        4.02800       -0.00180
C          2.52000        5.47760        0.00720
C          2.43180        6.67500        0.01440
H         -0.03890       -2.24740       -0.00910
H         -0.50050        1.87400       -0.86260
H         -0.48450        1.86500        0.89440
H          2.01230        1.63650        0.87980
H          1.99610        1.64560       -0.89590
H          3.25030        3.70730        0.87570
H          3.23400        3.71670       -0.89340
H          2.34670        7.73350        0.02120
