16
gdb 2601	3.10115	2.69006	1.73478	2.9423	61.29	-0.2473	-0.0239	0.2234	766.5243	0.135722	-325.765414	-325.75783	-325.756886	-325.79701	27.27
C         -0.39180        1.47170       -0.02820
C          0.17330        0.04940        0.08500
C          0.79090       -0.45460       -1.20390
C          0.62560       -1.89110       -1.60550
N         -0.06120       -0.84540       -2.35560
C          2.06480        0.19070       -1.64630
O          2.72660        0.93330       -0.96440
H          0.40010        2.18420       -0.27110
H         -1.15950        1.53690       -0.80690
H         -0.84790        1.78130        0.91660
H          0.94170        0.02440        0.86520
H         -0.61700       -0.64580        0.39370
H          1.41420       -2.40480       -2.14930
H          0.06330       -2.51830       -0.91860
H         -1.03790       -0.79020       -2.07510
H          2.36420       -0.08660       -2.68130
