19
gdb 9901	4.56467	0.90241	0.84416	1.8187	82.39	-0.2263	0.0439	0.2702	1453.2374	0.164146	-327.88427	-327.874826	-327.873882	-327.920322	33.436
C         -0.61040        1.28280        0.14470
C          0.49930        0.24620       -0.11010
C          1.04610       -0.32700        1.11550
C          1.47570       -0.78520        2.14540
C          2.03460       -1.34180        3.35330
C          3.47120       -0.95900        3.65580
C          1.09150       -1.64610        4.47390
N          1.68140       -2.74490        3.69860
H         -0.23360        2.11520        0.74520
H         -0.98480        1.68190       -0.80270
H         -1.44780        0.83120        0.68340
H          0.10930       -0.55930       -0.74600
H          1.31120        0.71190       -0.68350
H          3.56400        0.12340        3.78750
H          3.80550       -1.45880        4.56830
H          4.12990       -1.26160        2.83640
H          1.44870       -1.56530        5.49740
H          0.04230       -1.40450        4.33330
H          1.00080       -3.09080        3.02660
