16
gdb 18060	5.49723	1.22547	1.19978	1.9534	70.01	-0.2405	0.0572	0.2977	1033.3464	0.12962	-346.517516	-346.510074	-346.50913	-346.549651	27.981
C          0.02450       -1.12950        0.25820
C         -0.01210        0.05570        0.06220
C         -0.02680        1.49380       -0.18430
C          1.36730        2.10350       -0.11890
C          1.65490        3.59490       -0.12980
C          0.65100        4.33290        0.74850
O          0.87720        3.41490        1.85270
C          1.91090        2.75950        1.11110
H          0.04340       -2.17570        0.43820
H         -0.47750        1.69210       -1.16540
H         -0.66170        1.98230        0.56290
H          2.12480        1.54640       -0.66480
H          2.34080        4.05550       -0.82790
H          0.97860        5.34170        1.02220
H         -0.39840        4.36040        0.43200
H          2.80970        2.47420        1.64560
