17
gdb 19167	4.10369	1.5152	1.29515	1.6043	63.32	-0.2501	0.0699	0.32	964.0368	0.142326	-400.94072	-400.932891	-400.931946	-400.972973	29.185
O          0.11850        1.36450        0.02250
C          0.04010       -0.03450        0.17210
C         -1.39680       -0.54090        0.12390
C         -2.48290        0.33260        0.58460
O         -2.20980        0.17310       -0.82340
C         -1.55080       -2.03360        0.10560
C         -2.76330       -2.66920       -0.45800
N         -1.47960       -2.75340       -1.18100
H         -0.43130        1.57920       -0.74230
H          0.62130       -0.56170       -0.60220
H          0.48650       -0.28460        1.14100
H         -3.41750       -0.11120        0.91950
H         -2.24160        1.31490        0.98190
H         -1.02320       -2.53990        0.91220
H         -3.12010       -3.60790       -0.04490
H         -3.52990       -2.01460       -0.86120
H         -1.49750       -2.06810       -1.93490
