16
gdb 7909	3.48974	1.81152	1.28955	4.4663	67.99	-0.2645	-0.0344	0.2301	955.4472	0.130049	-383.807142	-383.799323	-383.798379	-383.839323	28.426
C         -0.10710        1.53970        0.01130
C          0.04350        0.02110       -0.03810
O          0.91540       -0.34780       -1.11720
C          1.96170       -1.09100       -0.63970
O          2.83070       -1.52310       -1.34500
C          1.79710       -1.23460        0.83500
C          2.79160       -1.99360        1.64600
C          0.68040       -0.59140        1.17820
H          0.86040        2.01330        0.19890
H         -0.50220        1.91010       -0.93780
H         -0.79860        1.82450        0.81040
H         -0.93540       -0.43680       -0.23900
H          2.87140       -3.02500        1.28650
H          3.78880       -1.55310        1.54070
H          2.52310       -2.00870        2.70470
H          0.25630       -0.49070        2.16990
