16
gdb 19265	3.25292	1.85454	1.35206	2.6991	64.6	-0.2418	-0.0302	0.2116	925.6745	0.129115	-383.714688	-383.707048	-383.706104	-383.746933	27.866
C          0.06610        1.50390        0.13690
C          0.01640        0.00160       -0.16400
C         -1.39180       -0.57280       -0.03100
C         -1.58220       -2.10090       -0.05950
O         -0.88040       -2.61990        1.06450
C         -2.23120       -2.14550        1.27450
C         -2.08420       -0.62800        1.37430
O         -2.45870        0.20300        2.14640
H          1.09040        1.88160        0.06660
H         -0.54830        2.07060       -0.57160
H         -0.30920        1.71640        1.14180
H          0.38320       -0.18800       -1.18100
H          0.67980       -0.54290        0.51560
H         -2.09070       -0.06810       -0.71240
H         -1.74980       -2.75870       -0.90360
H         -2.94410       -2.83520        1.70990
