18
gdb 17441	3.86476	1.74401	1.65282	1.4202	71.5	-0.2008	0.0751	0.2759	877.4594	0.153227	-347.725352	-347.717856	-347.716912	-347.756486	29.886
C          0.04150        1.55440        0.04820
C         -0.01760        0.05530        0.04100
C         -0.93600       -0.75810        0.91430
C          0.56240       -0.94160        1.02670
C          1.22010       -1.74020       -0.12630
C          0.32320       -2.20380       -1.23900
O         -0.95250       -2.77860       -1.14050
C          0.60620       -0.74300       -1.14410
H          1.04280        1.91900       -0.21170
H         -0.66410        1.98520       -0.67390
H         -0.21260        1.95080        1.03670
H         -1.35410       -0.18680        1.74010
H         -1.58290       -1.52360        0.51300
H          1.09690       -0.73410        1.94540
H          2.24810       -2.07820       -0.06370
H          0.91800       -2.64980       -2.04180
H         -0.84870       -3.64130       -0.72390
H          1.10440       -0.22010       -1.95280
