20
gdb 16418	3.16269	2.16869	1.80018	1.6605	73.15	-0.2346	0.0808	0.3154	847.7946	0.179846	-349.004428	-348.997428	-348.996484	-349.035177	28.459
C         -0.24250        1.52950        0.10860
C          0.02240        0.02350       -0.00290
C          0.83840       -0.35940       -1.27470
C          2.36270       -0.46590       -1.00650
C          2.60080       -0.87510        0.44590
C          1.50280       -1.82030        0.98170
C          0.78000       -0.48130        1.23330
O          2.07220        0.19200        1.28750
H          0.69990        2.07820        0.18830
H         -0.78740        1.89750       -0.76640
H         -0.84000        1.76190        0.99750
H         -0.94370       -0.49780       -0.04390
H          0.48220       -1.32830       -1.63940
H          0.64050        0.35410       -2.08070
H          2.82040       -1.18380       -1.69750
H          2.86350        0.49590       -1.16130
H          3.64820       -1.09550        0.67060
H          1.05090       -2.54990        0.30630
H          1.80190       -2.30150        1.91400
H          0.21210       -0.34910        2.15980
