14
gdb 14286	3.90335	1.88644	1.80959	4.8828	56.64	-0.2834	0.0373	0.3207	779.0398	0.107654	-419.706575	-419.699914	-419.698969	-419.737665	24.542
C         -0.06400        1.56540        0.01450
C          0.05790        0.05910        0.05470
C          1.34800       -0.69010       -0.19930
O          2.54980        0.03900       -0.06240
C          2.70210        0.44020        1.23340
O          3.61170        1.08370        1.64360
O          1.64110        0.02000        1.98230
C          0.73910       -0.70290        1.17060
H          0.82090        2.06720        0.41030
H         -0.20680        1.90820       -1.01450
H         -0.92360        1.89340        0.60640
H         -0.80410       -0.47970       -0.33350
H          1.43670       -1.52930       -0.87650
H          0.30170       -1.55310        1.67710
