16
gdb 819	4.9656	1.81417	1.48451	0.6127	64.26	-0.2304	0.0138	0.2442	847.5087	0.135269	-325.72807	-325.720165	-325.719221	-325.760836	28.125
C          0.04290        1.47030       -0.00140
C         -0.00240       -0.03540        0.04240
N          0.02550       -0.70890        1.13000
O          0.12920        0.13030        2.25430
C         -0.04260       -0.78970       -1.23860
C          1.19290       -1.55530       -1.69730
C         -0.04320       -2.29490       -1.27180
H          0.95590        1.83780        0.47810
H          0.00760        1.83990       -1.02770
H         -0.79390        1.89340        0.56340
H          0.11880       -0.50370        2.97850
H         -0.59200       -0.28130       -2.02550
H          1.45010       -1.52250       -2.75040
H          2.03950       -1.56060       -1.02000
H         -0.02610       -2.80110       -0.31500
H         -0.64350       -2.77560       -2.03610
