14
gdb 12726	3.08344	2.29757	1.70469	3.0345	57.17	-0.2677	-0.0047	0.2631	776.2451	0.10706	-419.682613	-419.675739	-419.674795	-419.713652	25.73
O          0.34530        1.47000       -0.13470
C          0.08590        0.11550       -0.11380
C          0.42710       -0.63340       -1.43200
C         -0.94880       -1.36910       -1.39250
C         -1.28500       -0.66260       -0.07000
O         -0.78440       -1.42600        1.07760
C          0.38330       -0.70280        1.14790
O          1.22530       -0.74960        1.98660
H          0.33940        1.81090        0.76700
H          0.49860        0.08830       -2.24800
H          1.33220       -1.24270       -1.41740
H         -1.60970       -1.08500       -2.21380
H         -0.92130       -2.45710       -1.31590
H         -2.26670       -0.24010        0.13520
