13
gdb 21774	4.17089	2.19603	1.46545	3.8031	59.84	-0.2183	0.0201	0.2384	789.9429	0.098061	-394.783504	-394.776995	-394.776051	-394.815012	23.35
O         -0.27480       -0.12300        0.07420
C         -0.14290        1.07580        0.15880
N         -1.07610        2.09070       -0.06780
N         -0.62650        3.40230        0.11250
C          0.60010        3.18310        0.45380
C          1.97060        3.68230        0.86640
C          2.35020        2.14410        0.91480
N          0.95720        1.87360        0.50370
H         -2.02780        1.92880       -0.34640
H          2.50700        4.26330        0.11460
H          2.01590        4.19640        1.82780
H          3.09320        1.82080        0.18330
H          2.59850        1.75320        1.90330
