13
gdb 21543	3.39492	2.06885	1.29428	0.9644	55.69	-0.2087	0.0522	0.2609	858.8177	0.097353	-431.929307	-431.921865	-431.92092	-431.960561	27.817
N         -0.24540        1.47410       -0.06090
C         -0.03900        0.06810       -0.05540
C         -1.08160       -0.83970       -0.07370
O         -2.40390       -0.61690       -0.09860
N         -0.55950       -2.07790       -0.06270
N          0.81810       -2.05330       -0.03700
C          1.10820       -0.76470       -0.03310
O          2.38280       -0.31930       -0.01000
H          0.18620        1.91510       -0.86770
H          0.15530        1.91700        0.76060
H         -2.49670        0.34860       -0.10160
H         -1.04530       -2.95630       -0.06990
H          2.95140       -1.10000        0.00140
