17
gdb 4775	5.49472	1.20267	1.06609	1.9	71.86	-0.1797	0.0481	0.2278	1123.8479	0.142518	-363.90002	-363.891654	-363.89071	-363.933199	30.78
C          0.16170        1.51430        0.21920
C         -0.10190        0.03020       -0.09670
C          0.59440       -0.46090       -1.32700
C          0.10350       -0.74880       -2.58650
C          1.20570       -1.14670       -3.39430
O          1.19040       -1.52600       -4.70750
C          2.34070       -1.09540       -2.62090
N          1.94620       -0.67410       -1.36450
H          1.22820        1.70420        0.37920
H         -0.16500        2.15000       -0.60900
H         -0.37270        1.82360        1.12320
H          0.18940       -0.58000        0.76960
H         -1.17710       -0.12740       -0.22880
H         -0.93150       -0.68140       -2.89000
H          0.28350       -1.48020       -5.02230
H          3.36600       -1.32480       -2.85450
H          2.56680       -0.55280       -0.58400
