22
gdb 6566	2.88523	1.9259	1.45864	0.1144	83.2	-0.2773	0.0905	0.3678	995.4561	0.199454	-313.040661	-313.031951	-313.031007	-313.072937	34.071
C         -0.16390        1.58110       -0.01130
C          0.01920        0.07030        0.01440
C          1.18480       -0.63960       -0.75850
C          1.42830       -0.63980       -2.24470
C          2.15420       -0.15110        0.36190
C          0.87950       -0.64470        1.11370
C          0.63830       -0.65310        2.60030
C          0.90820       -1.87270        0.15400
H          0.76460        2.13730        0.14180
H         -0.58360        1.90070       -0.97210
H         -0.86760        1.89580        0.76790
H         -0.95300       -0.41520       -0.14550
H          1.58300        0.37750       -2.62180
H          2.31710       -1.22770       -2.49950
H          0.57670       -1.07020       -2.78390
H          3.05870       -0.75060        0.50770
H          2.39260        0.91380        0.40370
H          0.66430        0.36210        3.01240
H         -0.34010       -1.08560        2.83870
H          1.40070       -1.24310        3.12110
H         -0.04060       -2.39680       -0.00210
H          1.73600       -2.57640        0.28710
