20
gdb 11039	3.9806	1.67986	1.38896	1.7784	74.38	-0.2501	0.0904	0.3405	978.2178	0.177266	-349.018917	-349.010913	-349.009969	-349.05072	31.103
C          0.07370        1.58100        0.03430
C          0.03090        0.05200        0.01030
C          0.76550       -0.57800       -1.20320
C          1.24700       -1.96900       -0.73410
C          1.43440       -1.81430        0.76910
C          1.71300       -3.00920        1.63850
O          2.14610       -0.60480        1.10700
C          0.71040       -0.61010        1.19700
H          1.10890        1.93040        0.10410
H         -0.36670        2.00290       -0.87510
H         -0.47840        1.98480        0.88980
H         -1.01810       -0.27840        0.01490
H          0.12940       -0.62870       -2.09070
H          1.63000        0.04170       -1.45520
H          0.48640       -2.73910       -0.91540
H          2.16310       -2.29270       -1.23960
H          2.66200       -3.47980        1.35800
H          1.77860       -2.71540        2.68910
H          0.92370       -3.76120        1.53220
H          0.30920       -0.49290        2.20250
