15
gdb 20452	6.18332	1.41195	1.25178	1.0836	67.53	-0.2304	0.0257	0.2561	951.6942	0.122234	-358.834437	-358.827787	-358.826843	-358.865769	24.963
C          1.06590        0.99650        0.01270
N          0.22590        0.15580       -0.84820
C         -0.31160        0.61880        0.44490
C         -0.56270       -0.41660        1.46860
N         -1.37710       -0.16090        2.49260
N         -1.36190       -1.29380        3.22210
C         -0.57050       -2.25770        2.69140
C         -0.02860       -1.72570        1.54310
H          1.91860        0.48770        0.45340
H          1.24590        2.03150       -0.26720
H         -0.16710        0.70650       -1.60630
H         -1.05060        1.41580        0.44130
H         -1.92060       -1.34260        4.05650
H         -0.46380       -3.22420        3.15830
H          0.63410       -2.20250        0.84090
