20
gdb 14742	11.56265	0.56282	0.54583	1.0567	82.	-0.2428	0.0622	0.305	2065.1769	0.174018	-348.980945	-348.97031	-348.969366	-349.019427	35.039
C         -0.10940        1.53350        0.01110
C         -0.02250        0.01660        0.00230
O         -1.33360       -0.51000        0.01230
C         -1.37140       -1.91790        0.00500
C         -2.84310       -2.34550        0.01660
C         -3.00010       -3.79480        0.01050
C         -3.09930       -4.99470        0.00500
C         -3.23530       -6.44460       -0.00170
H          0.89250        1.97310        0.00380
H         -0.65270        1.89160       -0.86790
H         -0.63570        1.88230        0.90420
H          0.52150       -0.33480       -0.89100
H          0.53870       -0.34410        0.88120
H         -0.86930       -2.32170       -0.88920
H         -0.85250       -2.33130        0.88510
H         -3.32270       -1.90940        0.90140
H         -3.33930       -1.90000       -0.85420
H         -4.28910       -6.74470        0.00810
H         -2.77530       -6.88540       -0.89320
H         -2.75620       -6.89530        0.87460
