11
gdb 3808	8.24573	2.21297	1.76417	0.4985	47.94	-0.2578	-0.0273	0.2305	658.1738	0.080364	-372.726782	-372.72087	-372.719926	-372.756807	20.157
C         -0.00110        1.37550       -0.01460
O          0.01990       -0.05570       -0.03360
C          0.61750       -0.60900       -1.07970
N          0.70330       -1.92980       -1.21270
N          1.35940       -2.00020       -2.36920
N          1.66330       -0.84340       -2.92040
N          1.19280        0.07160       -2.10320
H          1.01520        1.78000       -0.00760
H         -0.53310        1.76890       -0.88560
H         -0.52320        1.64720        0.90270
H          1.60830       -2.87960       -2.79640
