13
gdb 3785	7.69837	1.94875	1.57531	4.071	55.77	-0.2106	-0.0024	0.2082	745.042	0.103085	-340.613243	-340.606938	-340.605994	-340.643505	22.754
C          0.00360        1.43380        0.03650
N         -0.15430       -0.00730       -0.06000
C          0.55560       -0.65910       -1.06110
C          1.20650       -0.15560       -2.15020
O          1.70300       -1.16580       -2.90260
N          1.39460       -2.36940       -2.30460
C          0.71580       -2.06850       -1.22600
H          1.05240        1.75430        0.14530
H         -0.40190        1.90700       -0.86470
H         -0.56680        1.80220        0.89170
H         -0.09280       -0.47500        0.83300
H          1.38790        0.83980       -2.51840
H          0.35430       -2.86210       -0.58660
