17
gdb 11920	3.12222	1.85469	1.49069	4.3886	74.22	-0.2616	0.0195	0.2811	907.5452	0.142669	-326.727051	-326.719423	-326.718478	-326.758713	28.921
C          0.00350        1.54420        0.05770
C          0.04160        0.04570        0.00180
C         -0.84210       -0.82880        0.83440
C          0.65780       -0.95870        1.01800
C          1.24850       -1.78650       -0.13500
C          0.62980       -0.77870       -1.15510
C          1.29590       -0.69440        2.26340
N          1.82940       -0.47020        3.26710
H          0.96360        1.97760       -0.24150
H         -0.76610        1.93710       -0.61740
H         -0.22610        1.89750        1.06750
H         -1.36110       -0.33160        1.64710
H         -1.38480       -1.66330        0.39560
H          2.33910       -1.77680       -0.14580
H          0.90230       -2.82280       -0.18570
H         -0.09870       -1.17940       -1.86660
H          1.39700       -0.23430       -1.70980
