11
gdb 21901	3.68794	1.91239	1.25935	4.4227	55.42	-0.2554	-0.0607	0.1946	853.1249	0.073641	-430.726315	-430.719795	-430.718851	-430.757232	23.239
O          0.12110        1.33230        0.05690
C          0.07990       -0.00510        0.04190
N          0.07830       -0.72570       -1.07240
N          0.03060       -1.97840       -0.59550
N          0.00170       -2.12600        0.70340
C          0.03230       -0.86350        1.16830
C          0.01690       -0.50520        2.59030
O         -0.02470       -1.29310        3.50480
H          0.14780        1.64410       -0.85690
H          0.01760       -2.77090       -1.21850
H          0.04760        0.59110        2.76500
