16
gdb 11735	5.17818	1.3977	1.26052	3.7066	66.25	-0.2421	-0.0107	0.2314	974.572	0.129074	-383.71542	-383.707777	-383.706833	-383.747593	28.21
C         -0.24460        1.31910       -0.02940
O          0.18930       -0.02900        0.08300
C          0.75700       -0.51730       -1.06580
C         -0.03430       -1.03190       -2.21530
C          0.86090       -2.01020       -1.43360
C          2.29040       -1.78010       -1.82270
O          3.19680       -2.50150       -2.12660
C          2.21680       -0.26180       -1.49280
H          0.59490        1.99700       -0.23620
H         -0.99420        1.43300       -0.82420
H         -0.69100        1.58730        0.92990
H         -1.08900       -1.19050       -2.01400
H          0.20030       -0.76780       -3.24270
H          0.43690       -2.88800       -0.96260
H          2.40490        0.45330       -2.29860
H          2.86880       -0.04170       -0.64190
