13
gdb 21084	3.51631	2.50597	1.47663	3.828	63.68	-0.2535	-0.0835	0.17	786.906	0.097162	-394.80978	-394.803167	-394.802223	-394.840775	23.937
C         -0.03250        1.44950       -0.01350
N         -0.00760       -0.00990       -0.01550
N         -0.04730       -0.61150       -1.19480
C         -0.02450       -1.91810       -1.18750
C          0.03980       -2.63510        0.03970
N          0.07930       -2.05780        1.20280
C          0.05730       -0.66850        1.24450
O          0.08910       -0.00530        2.25630
H          0.86590        1.83300        0.47570
H         -0.08270        1.77800       -1.05010
H         -0.89820        1.80270        0.55160
H         -0.05690       -2.41120       -2.15110
H          0.05780       -3.72530        0.02130
