17
gdb 11975	2.63096	2.27851	1.75192	3.5842	68.53	-0.2326	-0.0167	0.2159	840.3028	0.140987	-363.837385	-363.829485	-363.828541	-363.869122	29.851
C         -0.03500        1.57060       -0.08910
C          0.00300        0.04720       -0.04590
C         -1.36270       -0.56400        0.28500
C          0.71330       -0.68280       -1.21290
N          2.08690       -0.17920       -1.25080
C          1.74080       -1.30110       -0.30470
C          1.08420       -0.62180        0.87490
O          1.19890       -0.70410        2.06300
H          0.92950        1.97410       -0.40360
H         -0.80560        1.92200       -0.78490
H         -0.27210        1.97000        0.90230
H         -2.11300       -0.24460       -0.44650
H         -1.33000       -1.65880        0.28340
H         -1.69080       -0.24050        1.27690
H          0.24140       -1.13720       -2.07550
H          2.56660       -0.62040       -2.03590
H          2.26610       -2.24640       -0.35810
