12
gdb 19638	6.25785	1.77022	1.69841	4.9509	62.33	-0.2462	-0.0099	0.2363	743.5038	0.084475	-340.265514	-340.259869	-340.258925	-340.295198	21.909
N          0.08460       -1.12320       -0.04850
C          0.02970        0.03300       -0.03660
C         -0.08580        1.44820       -0.02020
C         -0.94360        2.43480        0.81630
C         -0.78610        3.48170       -0.29380
C          0.23440        3.36930        0.80950
N          1.09940        2.39930       -0.00300
C          0.07930        2.48020       -1.09400
H         -1.74410        2.28820        1.52520
H         -1.45260        4.28200       -0.57750
H          0.62020        4.06880        1.53840
H          0.33190        2.35930       -2.14010
