18
gdb 15274	3.55052	1.35488	1.25821	3.7389	63.6	-0.2524	0.0501	0.3025	1029.979	0.153888	-422.040958	-422.032381	-422.031437	-422.074337	31.748
O          0.03130        1.15130       -0.75070
C         -0.00700        0.16150        0.26280
C         -1.36380       -0.51930        0.32450
C         -1.82650       -1.29320       -0.87710
O         -0.90800       -1.43020       -1.92720
C         -1.55330       -2.03610        0.41090
C         -0.41530       -3.03810        0.42400
O         -0.48630       -3.94750       -0.68850
H         -0.09210        0.67370       -1.58040
H          0.79750       -0.57010        0.11800
H          0.19470        0.67770        1.20700
H         -2.12990        0.06430        0.82650
H         -2.86000       -1.18450       -1.20260
H         -0.67570       -2.36990       -1.97530
H         -2.43370       -2.35710        0.96240
H          0.55930       -2.56010        0.32180
H         -0.40590       -3.59500        1.37020
H         -1.32720       -4.41420       -0.63250
