18
gdb 5108	3.35536	2.00958	1.28391	1.4756	76.14	-0.1765	0.0562	0.2327	958.9216	0.154469	-344.02229	-344.013622	-344.012678	-344.055165	31.624
C         -0.03310        1.42850       -0.00650
N         -0.01070       -0.01800       -0.01160
C         -0.00490       -0.82420       -1.13560
C          0.01180       -0.25980       -2.51720
C         -0.01540       -2.13200       -0.70720
C         -0.00760       -2.12910        0.71490
C         -0.00160       -0.81360        1.11990
N         -0.05010       -0.20940        2.39800
H          0.93870        1.85500       -0.28460
H         -0.78490        1.80370       -0.70700
H         -0.28880        1.75900        1.00120
H          0.88730        0.37650       -2.70210
H          0.03910       -1.07620       -3.24290
H         -0.87640        0.34670       -2.73970
H         -0.01840       -2.99750       -1.35320
H          0.00100       -2.98710        1.37020
H         -0.51620       -0.81950        3.05860
H          0.87520       -0.01150        2.76950
