13
gdb 3222	3.50209	3.39957	2.30234	2.1889	48.73	-0.2449	0.0556	0.3005	597.8613	0.101073	-381.536295	-381.52983	-381.528886	-381.567198	23.67
O          0.13570        1.36970        0.22140
C          0.05970       -0.01460        0.05970
C         -1.33940       -0.63320       -0.00760
O         -1.94720       -0.04800       -1.17890
C         -1.09330       -1.20000       -1.34540
C          0.32750       -0.63150       -1.39700
O          0.62520        0.24070       -2.44540
H         -0.55290        1.75540       -0.33330
H          0.70650       -0.47070        0.81300
H         -2.00990       -0.95990        0.77840
H         -1.53010       -2.06510       -1.83010
H          1.10840       -1.39530       -1.37140
H         -0.14460        0.81000       -2.56410
