16
gdb 16823	3.62714	2.0889	1.53192	4.2912	65.91	-0.2543	0.03	0.2843	841.9825	0.131916	-379.916239	-379.909319	-379.908375	-379.94731	26.491
C          0.12870        1.54940       -0.11170
C         -0.01820        0.05330        0.11280
O          0.47510       -0.66810       -1.03150
C          1.19750       -1.76920       -0.63850
N          1.61790       -2.67420       -1.40540
N          1.42370       -1.76890        0.77010
C          2.23870       -0.59010        1.17150
C          0.76370       -0.55030        1.27030
H          1.17890        1.82850       -0.23010
H         -0.41600        1.85570       -1.00850
H         -0.28270        2.09700        0.74210
H         -1.08040       -0.19850        0.23510
H          1.32910       -2.48070       -2.36400
H          2.83680       -0.75090        2.06180
H          2.72660       -0.02910        0.37960
H          0.27280       -0.62710        2.23480
