16
gdb 5308	4.48905	1.4155	1.37294	1.4923	66.82	-0.2224	0.0129	0.2353	961.6343	0.130589	-383.768433	-383.760721	-383.759777	-383.800821	28.457
C         -0.04830        1.57400        0.23350
C         -0.02790        0.05690        0.00850
O          0.73180       -0.60200        1.02290
C         -1.40220       -0.52180       -0.10770
C         -2.06850       -1.20610       -1.07490
C         -3.37050       -1.49860       -0.54830
C         -3.39470       -0.97470        0.70280
O         -2.20790       -0.37190        0.98850
H          0.97500        1.94440        0.33550
H         -0.53190        2.08810       -0.60310
H         -0.60230        1.81840        1.14560
H          0.49630       -0.16420       -0.92690
H          0.22650       -0.53840        1.84120
H         -1.67980       -1.47460       -2.04480
H         -4.17170       -2.02990       -1.03740
H         -4.13580       -0.94190        1.48430
