17
gdb 11297	4.44184	1.33753	1.18293	5.1408	68.27	-0.2807	0.0402	0.3209	1021.5262	0.14378	-363.893845	-363.886048	-363.885104	-363.926735	28.675
O         -0.70610        1.14170        0.85500
C          0.02810        0.20190        0.07450
C          0.91490       -0.70720        0.94960
C         -0.00450       -1.85930        1.44080
C         -1.36470       -1.64260        0.70530
C         -1.00380       -0.75960       -0.51440
C         -2.04240       -2.88520        0.35690
N         -2.56950       -3.87510        0.07560
H         -0.07780        1.69500        1.32940
H          0.60540        0.71730       -0.70520
H          1.74110       -1.10340        0.35070
H          1.36250       -0.14440        1.77460
H          0.41610       -2.83260        1.17860
H         -0.14790       -1.85330        2.52280
H         -2.03010       -1.06230        1.35090
H         -1.86660       -0.23780       -0.93180
H         -0.54610       -1.36630       -1.30180
