11
gdb 955	6.04127	2.91204	1.96491	2.4022	53.76	-0.2562	-0.0416	0.2146	595.6777	0.081975	-339.501361	-339.496327	-339.495383	-339.530088	19.027
O          0.10160        1.30980        0.11820
C          0.06950       -0.02790        0.06110
N          0.08670       -0.58050       -1.15640
C          0.05390       -1.91320       -1.18680
C          0.00490       -2.68420       -0.03230
C         -0.00820       -1.98290        1.16990
N          0.02360       -0.65270        1.23630
H          0.13270        1.61790       -0.79770
H          0.06760       -2.37160       -2.17310
H         -0.02150       -3.76530       -0.06570
H         -0.04580       -2.50640        2.12290
