14
gdb 5697	4.84445	2.13446	1.51087	2.4206	62.71	-0.1858	0.0418	0.2275	783.7113	0.110725	-378.740942	-378.734721	-378.733776	-378.77168	23.345
C          0.04870        1.36130       -0.15000
C          1.51900        1.84400        0.13680
C          2.12010        0.54970        0.60350
C          1.13470       -0.37180        0.68570
N          1.68090       -1.52790        1.15320
C          3.02920       -1.22820        1.33570
N          3.31750        0.01400        1.01620
O         -0.12020       -0.01980        0.34680
H         -0.70840        1.96790        0.34970
H         -0.16420        1.33600       -1.22200
H          1.97260        2.25630       -0.77060
H          1.54070        2.63300        0.89830
H          1.22520       -2.40830        1.32110
H          3.72220       -1.97120        1.69830
