17
gdb 9649	3.43385	1.34435	1.30518	5.4577	70.22	-0.234	0.0316	0.2656	1032.4872	0.14257	-360.022831	-360.014251	-360.013307	-360.055743	31.539
C          0.05010        1.12040        0.42180
N         -0.13880       -0.04110       -0.44740
C         -1.43670       -0.63370       -0.34240
C         -1.67020       -1.97030       -0.98090
C         -1.54290       -1.88020        0.54420
N         -0.35600       -2.30420        1.23450
C         -2.76460       -2.03250        1.30160
N         -3.75620       -2.15980        1.88380
H          1.04690        1.53780        0.25770
H         -0.69360        1.91770        0.26000
H         -0.01830        0.80280        1.46630
H          0.05920        0.19650       -1.41290
H         -2.29450        0.04050       -0.29540
H         -2.64240       -2.16880       -1.41660
H         -0.82820       -2.43580       -1.48190
H         -0.21820       -3.30520        1.14260
H          0.43540       -1.82820        0.80810
