16
gdb 15371	3.58869	1.32359	1.06901	3.8025	62.9	-0.258	0.0013	0.2593	1097.0964	0.12805	-420.859536	-420.85103	-420.850086	-420.89338	29.236
C          0.19130        0.92150        0.43440
O         -0.08980       -0.14470       -0.46140
C         -1.35410       -0.67730       -0.29190
C         -1.50760       -2.12010       -0.67260
C         -1.57720       -1.71430        0.78380
O         -0.48070       -1.97310        1.63140
C         -0.23470       -3.26720        1.93940
O          0.62770       -3.58990        2.69770
H          1.19330        1.27990        0.19030
H         -0.52370        1.74790        0.30790
H          0.16950        0.58290        1.47670
H         -2.17930        0.01000       -0.48710
H         -2.41220       -2.45540       -1.16620
H         -0.59250       -2.60470       -0.99440
H         -2.53510       -1.74080        1.29600
H         -0.91250       -3.96530        1.41420
