16
gdb 20791	3.17139	1.82167	1.25071	4.1537	67.56	-0.255	-0.0294	0.2257	979.7595	0.129428	-379.920294	-379.912121	-379.911177	-379.953765	28.555
C          0.04320        1.64880        0.34590
C         -0.00770        0.17370       -0.08950
C         -1.39510       -0.36780       -0.15370
C         -2.17990       -0.84460       -1.16330
C         -1.92290       -1.01540       -2.62210
N         -3.38560       -1.18970       -0.58510
N         -3.37940       -0.96130        0.64990
O         -2.09850       -0.42210        0.98350
H          1.07930        1.99480        0.39360
H         -0.49870        2.28500       -0.35990
H         -0.40840        1.77710        1.33280
H          0.45580        0.05250       -1.07310
H          0.57630       -0.43480        0.61150
H         -2.03830       -2.06150       -2.92280
H         -2.62500       -0.42420       -3.21870
H         -0.90950       -0.69850       -2.88000
