16
gdb 18553	3.79584	2.06324	1.66826	3.6557	65.04	-0.2399	0.0207	0.2607	803.4409	0.133811	-379.921096	-379.914714	-379.913769	-379.951637	25.095
N         -0.15110        1.24370       -0.46790
C         -0.06960        0.06720       -0.04720
O          1.00430       -0.62700        0.47890
C          0.20910       -1.84880        0.64650
C         -0.14570       -2.13740        2.09760
C         -1.30850       -1.15110        2.38420
N         -2.04020       -0.98460        1.11570
C         -1.04110       -1.10690        0.06770
H          0.74170        1.73310       -0.38020
H          0.66090       -2.67260        0.09300
H         -0.49360       -3.17440        2.17650
H          0.70920       -2.01310        2.76720
H         -1.98210       -1.48980        3.17380
H         -0.90750       -0.17790        2.68870
H         -2.72280       -1.72770        1.00970
H         -1.47030       -1.43610       -0.87830
