20
gdb 13977	5.06278	1.14265	1.05804	1.4816	75.68	-0.2283	0.0821	0.3104	1204.0732	0.176505	-348.969556	-348.961196	-348.960252	-349.002761	31.138
C          0.02400        1.52870        0.00690
C         -0.04090        0.00500       -0.11770
C         -1.45440       -0.55320        0.11320
C         -1.49820       -2.04630        0.03430
C         -1.62380       -2.88930       -1.19960
C         -2.59600       -3.08700       -0.04940
C         -1.86110       -3.76770        1.09620
O         -0.79280       -2.78420        1.05010
H          1.04090        1.89820       -0.15790
H         -0.63000        2.01640       -0.72500
H         -0.29220        1.85900        1.00270
H          0.30740       -0.30380       -1.11110
H          0.64080       -0.45830        0.60470
H         -1.81790       -0.23450        1.09880
H         -2.14730       -0.14120       -0.63140
H         -2.04870       -2.39270       -2.06680
H         -0.87170       -3.64230       -1.42110
H         -3.66770       -2.98040       -0.15170
H         -2.39010       -3.71540        2.05480
H         -1.49390       -4.78850        0.93280
