22
gdb 5995	3.75961	1.08948	1.05453	0.3949	75.11	-0.2452	0.0718	0.317	1266.2067	0.196566	-387.33825	-387.327567	-387.326623	-387.37373	38.259
C          0.07960        1.55250        0.18200
C          0.00210        0.04380        0.00300
O          0.65850       -0.55140        1.10540
C          0.71930       -1.98140        1.16270
C         -0.67790       -2.60870        1.26580
C          1.50900       -2.56750       -0.01600
C          1.49170       -2.20860        2.47290
O          1.64170       -3.60440        2.68410
H          1.12230        1.88080        0.21980
H         -0.41670        2.06240       -0.64930
H         -0.40600        1.85290        1.11500
H         -1.04970       -0.27470       -0.05040
H          0.47840       -0.24690       -0.94530
H         -1.22340       -2.55430        0.31940
H         -0.58610       -3.66100        1.54470
H         -1.26500       -2.09640        2.03470
H          2.45140       -2.02550       -0.14460
H          1.73800       -3.61680        0.18380
H          0.94790       -2.51460       -0.95330
H          2.46490       -1.70330        2.39130
H          0.93130       -1.73210        3.29030
H          2.12380       -3.73340        3.50500
