17
gdb 17558	3.24119	2.1375	1.63655	1.4887	68.47	-0.2284	0.0772	0.3055	840.3348	0.141679	-363.795739	-363.788381	-363.787437	-363.826998	28.421
C         -0.05450        1.53880       -0.01390
C          0.09110        0.05130        0.00130
N         -0.80760       -0.85760        0.76860
C          0.66050       -0.91070        0.99330
C          1.22430       -1.81660       -0.11230
C          0.61990       -0.82240       -1.12930
C          0.17070       -0.96920       -2.50930
O          1.39310       -0.27700       -2.18220
H          0.81400        2.00100       -0.49240
H         -0.94660        1.84560       -0.57270
H         -0.14230        1.93650        1.00280
H         -1.20440       -0.29720        1.52430
H          1.08150       -0.72290        1.97330
H          2.31550       -1.80510       -0.16890
H          0.85130       -2.84320       -0.12520
H          0.30280       -1.91990       -3.02360
H         -0.63210       -0.34100       -2.89240
