20
gdb 18292	3.0832	1.95294	1.67761	1.3781	73.94	-0.2235	0.0784	0.3019	895.8811	0.178666	-348.993795	-348.985891	-348.984947	-349.02732	29.689
C         -0.39270        1.44400        0.23280
C         -0.04570       -0.01740        0.06510
C          0.57910       -0.58360       -1.20450
C          1.03630        0.28240       -2.37170
C          2.55860        0.46220       -2.29320
C          2.93730        1.09660       -0.96010
O          2.44630        0.41030        0.19240
C          1.38700       -0.49560        0.06840
H          0.38780        2.10340       -0.15220
H         -1.32840        1.69470       -0.27990
H         -0.51870        1.68520        1.29350
H         -0.74790       -0.69120        0.55060
H          0.25160       -1.58110       -1.48160
H          0.75200       -0.18760       -3.31740
H          0.55190        1.26610       -2.35790
H          3.05040       -0.51250       -2.39830
H          2.92900        1.10470       -3.09970
H          4.02610        1.14270       -0.84430
H          2.56510        2.13380       -0.94190
H          1.61560       -1.41500        0.60140
