18
gdb 18806	3.00077	2.89365	2.32359	1.5736	69.08	-0.2308	0.084	0.3148	711.5188	0.157883	-347.780267	-347.774659	-347.773715	-347.809521	24.299
C         -0.06770        1.49060        0.21000
C          1.47300        1.46580       -0.02690
C          2.19960        1.19850        1.29950
C          1.48160        0.03150        2.02720
C          0.86220       -0.84520        0.94320
O          1.87040       -1.02930       -0.10250
C          1.28250        0.08540       -0.78680
C         -0.05610       -0.02870       -0.03800
H         -0.42710        1.87460        1.16990
H         -0.60380        2.00320       -0.59390
H          1.91350        2.29220       -0.58790
H          3.23730        0.92080        1.09560
H          2.21530        2.10160        1.91820
H          2.18760       -0.54980        2.62820
H          0.70140        0.39320        2.70680
H          0.47960       -1.80350        1.30330
H          1.43020        0.06710       -1.86820
H         -0.93090       -0.55690       -0.41810
