16
gdb 16384	3.01258	2.41995	1.73781	2.8487	63.9	-0.2307	-0.0194	0.2113	793.3567	0.131196	-383.733631	-383.726872	-383.725928	-383.76441	26.138
C         -0.05190        1.53220        0.00170
C          0.03380        0.00750       -0.03920
C          0.98170       -0.57280       -1.11080
C          1.18580       -2.04830       -0.69920
C          1.94630       -1.31680        0.43320
O          2.30170       -0.27200       -0.53370
C          0.80410       -0.59350        1.16610
O          0.58350       -0.48580        2.33950
H          0.94930        1.96920       -0.04460
H         -0.64040        1.91740       -0.83680
H         -0.52530        1.85860        0.93200
H         -0.96930       -0.43250       -0.08740
H          0.86840       -0.24940       -2.14520
H          0.31380       -2.65990       -0.45210
H          1.87250       -2.57400       -1.36330
H          2.77390       -1.72920        1.00610
