20
gdb 8381	4.13128	1.35548	1.2398	1.525	75.89	-0.2194	0.0867	0.3061	1089.3495	0.175593	-348.98322	-348.974656	-348.973711	-349.01637	32.232
C          0.30410        1.57630       -0.50130
C          0.15540        0.09490       -0.23850
C          1.38100       -0.80640       -0.10880
C          0.52420       -0.50190        1.07960
C          0.89320        0.15310        2.40490
C          0.08630       -1.01320        3.02540
C         -1.12760       -0.67950        3.86730
O         -0.27580       -1.50640        1.70620
H          1.16260        1.98970        0.03910
H          0.46010        1.77710       -1.56700
H         -0.58580        2.13130       -0.18340
H         -0.70260       -0.37680       -0.71180
H          1.31830       -1.80700       -0.52310
H          2.36500       -0.34880       -0.16690
H          1.95670        0.18340        2.64850
H          0.45380        1.14060        2.57040
H          0.71840       -1.74930        3.53980
H         -1.75210        0.06780        3.36800
H         -1.73330       -1.57530        4.03670
H         -0.82040       -0.28470        4.84220
