20
gdb 2336	5.22346	1.39639	1.22988	1.2192	71.85	-0.2198	0.0846	0.3043	1048.1442	0.182492	-291.01475	-291.006271	-291.005326	-291.047664	30.688
C          0.00720        1.56220       -0.03100
C         -0.12460        0.05690        0.21310
C          0.99430       -0.50670        1.10100
C          0.92520       -2.01160        1.26640
C          1.53380       -2.69940        2.44170
N          0.08760       -2.69880        2.25520
C         -0.71150       -1.93850        3.20290
H          0.95630        1.80120       -0.52390
H         -0.80120        1.93650       -0.66670
H         -0.02420        2.12150        0.91080
H         -1.09730       -0.15990        0.67160
H         -0.11950       -0.47390       -0.74790
H          1.96660       -0.26120        0.65150
H          0.98300       -0.00750        2.07630
H          0.94600       -2.54450        0.31470
H          2.03440       -3.65920        2.33890
H          1.94430       -2.05840        3.22300
H         -0.22910       -1.02920        3.59560
H         -1.65830       -1.64960        2.73470
H         -0.94260       -2.58350        4.05710
