17
gdb 15561	3.20872	1.78572	1.23869	3.0306	71.21	-0.2146	-0.0287	0.1859	974.39	0.141243	-363.863508	-363.855485	-363.854541	-363.896603	28.668
C         -0.16580        1.51270        0.00800
N         -0.07330        0.07500        0.15360
C         -1.33780       -0.66200        0.07130
C         -1.09460       -1.85670        0.94960
C          0.03480       -1.71740        1.63700
C          0.71070       -0.41020        1.28720
C          2.16570       -0.64240        0.87410
O          3.11710       -0.46110        1.58680
H          0.83510        1.95530        0.00260
H         -0.64100        1.75980       -0.94690
H         -0.74820        1.99850        0.81330
H         -2.19810       -0.07340        0.44580
H         -1.57470       -0.93080       -0.96840
H         -1.78750       -2.68590        1.02060
H          0.44800       -2.40390        2.36460
H          0.72190        0.27330        2.15530
H          2.25880       -1.01540       -0.17100
