18
gdb 17638	3.11519	1.47	1.23027	4.2695	68.2	-0.2372	0.0284	0.2657	1044.1335	0.15337	-381.129667	-381.120494	-381.11955	-381.164202	32.392
C         -0.31150        1.55820        0.05660
C          0.00360        0.06260       -0.10010
C         -1.26840       -0.77210       -0.10700
C         -1.27810       -2.15210        0.43470
N         -1.97670       -1.06380        1.14740
C          0.73610       -0.17460       -1.42680
N          1.91710       -0.85150       -1.33810
O          0.28240        0.21140       -2.48710
H          0.60530        2.14980        0.13950
H         -0.86360        1.90970       -0.81830
H         -0.91770        1.73320        0.95000
H          0.62970       -0.27140        0.73900
H         -1.92910       -0.54040       -0.93890
H         -1.92680       -2.90860        0.00300
H         -0.35440       -2.54090        0.85800
H         -1.41500       -0.76010        1.94050
H          2.26790       -1.21470       -0.47030
H          2.40240       -1.07750       -2.19140
