22
gdb 12281	2.85668	1.46216	1.24859	1.3875	77.46	-0.2486	0.0635	0.3121	1120.3605	0.199564	-350.200931	-350.191569	-350.190625	-350.234692	34.996
C          0.30970        1.27930        0.39180
C          0.26720       -0.22030        0.08170
C          0.60670       -0.53500       -1.37620
C          2.11740       -0.45620       -1.75890
C          2.19150       -2.01120       -1.85260
C          2.93720       -2.70460       -0.71540
C          0.63030       -2.05060       -1.76290
O          0.00110       -2.99560       -0.92950
H          1.30000        1.70110        0.18910
H         -0.41360        1.82640       -0.22270
H          0.07300        1.47610        1.44210
H          0.96110       -0.74130        0.75620
H         -0.73170       -0.61510        0.30530
H         -0.05040        0.06240       -2.01820
H          2.30220        0.04780       -2.71040
H          2.77020       -0.00450       -1.00490
H          2.57760       -2.38710       -2.80520
H          2.63820       -2.32820        0.27030
H          2.76090       -3.78500       -0.72890
H          4.01570       -2.53660       -0.80420
H          0.18590       -2.20870       -2.74950
H          0.35840       -2.90360       -0.04080
