14
gdb 5275	4.98191	1.59375	1.21659	0.2815	66.43	-0.2452	-0.0482	0.197	932.7586	0.108685	-378.790436	-378.783244	-378.7823	-378.822493	25.5
C          0.06320        1.51320        0.00770
C          0.03260       -0.00180        0.00200
O          1.04970       -0.67650       -0.00920
C         -1.27580       -0.65250        0.00980
C         -2.59300       -0.23090        0.02190
N         -3.44620       -1.29630        0.02460
C         -2.66290       -2.36340        0.01410
N         -1.35480       -2.03060        0.00500
H          1.09990        1.85080       -0.00140
H         -0.46150        1.91120       -0.86730
H         -0.44350        1.90390        0.89640
H         -2.96280        0.78380        0.02890
H         -3.00310       -3.38830        0.01280
H         -0.53990       -2.62470       -0.00380
