16
gdb 9073	4.61004	1.06148	0.98633	4.8896	66.33	-0.2693	0.0111	0.2804	1170.8903	0.130041	-379.965648	-379.956752	-379.955807	-380.000072	30.479
C         -0.68850        1.45450       -0.27210
C         -0.12020        0.03530       -0.09150
C         -1.22440       -1.03700        0.11600
N         -1.96690       -0.85070        1.34710
C         -3.21870       -0.30920        1.38040
O         -3.80880        0.13260        0.41940
C          0.70940       -0.34980       -1.23760
N          1.35220       -0.66690       -2.14420
H          0.11860        2.18010       -0.39740
H         -1.34130        1.50200       -1.14680
H         -1.27530        1.73220        0.60560
H          0.53310        0.02350        0.79120
H         -1.94150       -0.98500       -0.70630
H         -0.77010       -2.03210        0.11420
H         -1.58560       -1.21390        2.20630
H         -3.64200       -0.31680        2.40380
