15
gdb 4556	4.04471	1.76448	1.24778	4.644	64.83	-0.2058	0.0275	0.2333	948.555	0.118725	-399.864264	-399.856445	-399.8555	-399.89645	27.788
C          0.00420        1.47160        0.09250
N         -0.04130        0.02870        0.02550
C         -1.16810       -0.79550        0.09770
C         -0.74340       -2.06210       -0.00730
C         -1.42640       -3.37640       -0.00380
O          0.63410       -2.06020       -0.14510
C          1.08220       -0.75290       -0.12530
O          2.23560       -0.42380       -0.22440
H          1.05110        1.76510        0.00180
H         -0.56820        1.92400       -0.72440
H         -0.39010        1.83620        1.04700
H         -2.16250       -0.40010        0.21680
H         -1.24510       -3.92150       -0.93710
H         -1.06980       -4.00790        0.81780
H         -2.50380       -3.23630        0.11070
