18
gdb 19840	3.24606	2.46402	1.76114	1.7786	69.87	-0.2532	0.0839	0.3371	795.831	0.156812	-347.788896	-347.782562	-347.781618	-347.818995	26.137
C         -0.05440        1.51050       -0.02110
C          1.29100        0.82710        0.01770
C          2.13540        0.83650        1.29070
C          2.13840       -0.52190        2.01770
C          0.73370       -1.03400        2.25870
O         -0.27190       -0.03960        2.51040
C         -0.31830       -0.75390        1.26760
C          0.01880        0.00450        0.01830
H         -0.38340        2.00690        0.88530
H         -0.37430        1.97980       -0.94470
H          1.85190        0.82270       -0.91160
H          3.16500        1.11580        1.04770
H          1.76020        1.59490        1.98350
H          2.67900       -1.27750        1.43110
H          2.66910       -0.42950        2.97280
H          0.64420       -1.92470        2.88130
H         -1.16000       -1.44240        1.18990
H         -0.23570       -0.52790       -0.89340
