10
gdb 805	3.81358	2.32951	1.44614	0.468	62.61	-0.2418	-0.0602	0.1816	762.5217	0.063418	-322.057728	-322.05057	-322.049625	-322.088638	25.689
O         -0.06740        1.35300        0.01000
N          0.07130       -0.01690        0.00140
C         -1.07620       -0.62030        0.00910
C         -1.06220       -2.04670        0.00130
C         -1.09960       -3.24870       -0.00480
C         -2.33990        0.04230        0.02470
C         -3.41600        0.57960        0.03780
H          0.84830        1.65610        0.00290
H         -1.12170       -4.31060       -0.01020
H         -4.36480        1.05730        0.04940
