15
gdb 5763	6.0519	1.55012	1.36537	0.8894	68.88	-0.2099	0.0186	0.2285	900.2022	0.120237	-362.654322	-362.647717	-362.646773	-362.68574	24.959
C          0.25010        1.58700        0.10580
C          1.26700        0.54770       -0.19580
N         -0.12730        0.16440        0.07960
C         -0.41800       -0.46970        1.28430
C         -1.32510       -1.43950        1.57380
C         -1.19070       -1.71540        2.97520
C         -0.21300       -0.89380        3.43220
O          0.27430       -0.12310        2.41800
H          0.30600        2.07140        1.07590
H         -0.17900        2.18410       -0.69330
H          1.59040        0.37590       -1.21810
H          2.00470        0.33540        0.57200
H         -2.00100       -1.89450        0.86850
H         -1.75000       -2.43080        3.55750
H          0.23750       -0.73470        4.39790
