18
gdb 13071	4.01882	1.15786	0.98964	1.8907	76.65	-0.245	0.046	0.2911	1227.6668	0.152001	-347.766873	-347.757638	-347.756694	-347.80284	31.488
C          0.14050        1.56680       -0.09420
C          0.10500        0.11280       -0.02660
C          0.08030       -1.09090        0.02570
C          0.05070       -2.53620        0.10430
C         -0.03300       -3.18340        1.51480
O         -1.25930       -3.85870        1.19220
C         -1.30740       -3.28340       -0.13430
C         -2.55870       -2.46480       -0.36820
H          0.94840        1.91660       -0.74640
H         -0.79970        1.96960       -0.48690
H          0.30000        2.00760        0.89620
H          0.85650       -2.96290       -0.49950
H          0.77650       -3.88300        1.75570
H         -0.15440       -2.47120        2.33870
H         -1.22040       -4.07120       -0.89460
H         -2.63470       -1.64810        0.35420
H         -2.55360       -2.03630       -1.37580
H         -3.44070       -3.10510       -0.26890
