17
gdb 19983	3.63568	1.51263	1.20135	0.8356	75.98	-0.2309	0.0344	0.2653	1025.7219	0.140883	-326.641267	-326.633359	-326.632415	-326.673702	29.965
C         -0.27470       -1.22860        0.06790
C         -0.13560       -0.03360        0.05980
C          0.01110        1.39500        0.01050
C          0.53720        2.13650        1.20650
N          1.34030        2.04110        0.00100
C          2.50950        1.20400        0.04470
C          3.34430        1.13650       -1.20310
C          3.83860        1.90720       -0.00120
H         -0.40010       -2.28290        0.08130
H         -0.71260        1.90040       -0.62500
H          0.14120        3.12020        1.44460
H          0.82310        1.53090        2.06430
H          2.44100        0.29810        0.64720
H          3.81760        0.19330       -1.45110
H          2.99610        1.71190       -2.05270
H          3.81700        2.98910       -0.06080
H          4.65460        1.49710        0.58320
