14
gdb 2669	18.25553	0.83075	0.80647	5.4547	72.16	-0.2828	-0.0362	0.2467	1352.4832	0.112825	-287.440436	-287.432572	-287.431627	-287.47289	26.663
C         -0.02470        1.56260        0.02040
C         -0.00280        0.03330        0.01030
C          0.71000       -0.52530       -1.24180
C          0.74570       -1.97690       -1.27830
C          0.76310       -3.18540       -1.28660
C          0.78490       -4.55000       -1.29970
N          0.80320       -5.71180       -1.31080
H          0.98980        1.97580        0.01530
H         -0.55060        1.95950       -0.85470
H         -0.53280        1.93830        0.91300
H          0.50470       -0.34520        0.90390
H         -1.02380       -0.36140        0.04100
H          0.20940       -0.15790       -2.14760
H          1.73820       -0.14190       -1.28450
