15
gdb 7052	6.33967	0.84029	0.76542	5.8934	71.14	-0.2707	0.0147	0.2854	1430.8545	0.116341	-362.648802	-362.639334	-362.63839	-362.684462	31.508
C         -0.03090        1.47200       -0.01970
C          0.01140        0.01740       -0.01050
C          0.05170       -1.18610        0.01950
C          0.05920       -2.64920        0.00980
O         -1.23210       -3.20470        0.18820
C          0.72130       -3.16470       -1.29970
C          0.80340       -4.62190       -1.34300
N          0.88430       -5.77380       -1.37660
H          0.84770        1.89300        0.48060
H         -0.05420        1.86490       -1.04160
H         -0.91970        1.84240        0.50220
H          0.64830       -3.02430        0.85440
H         -1.84550       -2.71390       -0.37020
H          0.14250       -2.80850       -2.15890
H          1.72770       -2.74300       -1.39160
