20
gdb 13190	5.07842	1.10582	1.02598	2.4912	75.87	-0.2379	-0.0087	0.2292	1234.7418	0.176311	-349.021794	-349.012888	-349.011944	-349.056509	31.819
C         -0.39070        1.45740        0.18460
C         -0.09730       -0.01540       -0.08660
C          0.74740       -0.25870       -1.32950
O          1.21890        0.65360       -1.97350
C          0.93360       -1.70370       -1.74750
C         -0.02990       -2.20600       -2.88230
C          1.17720       -2.93060       -3.53310
C          2.12420       -2.04620       -2.68070
H          0.53770        2.02480        0.28430
H         -0.95370        1.90200       -0.64050
H         -0.97250        1.57580        1.10310
H          0.43440       -0.47580        0.75900
H         -1.02230       -0.60090       -0.18620
H          0.87520       -2.36710       -0.87930
H         -0.88940       -2.80700       -2.57700
H         -0.37870       -1.36900       -3.49330
H          1.22290       -3.98280       -3.23830
H          1.27020       -2.87110       -4.61980
H          2.44310       -1.14650       -3.21180
H          2.99460       -2.52230       -2.22370
