13
gdb 9867	6.03434	0.92877	0.86146	4.7842	74.82	-0.2668	-0.0492	0.2176	1265.6749	0.094489	-361.429837	-361.422067	-361.421123	-361.46227	28.05
O         -0.04940        1.37480       -0.07410
C         -0.00150       -0.02180       -0.01020
C         -0.47780       -0.69950        1.27070
C         -1.35480       -0.69180        0.05090
C          1.05600       -0.63830       -0.75960
C          1.97500       -1.12470       -1.37870
C          3.00380       -1.68540       -2.07680
N          3.88160       -2.16470       -2.66890
H          0.74480        1.72330        0.34770
H         -0.00060       -1.62620        1.56660
H         -0.72970       -0.02130        2.07790
H         -2.19400       -0.00650        0.03320
H         -1.48990       -1.61250       -0.50290
