12
gdb 9999	3.28497	1.47045	1.06718	5.129	59.26	-0.2773	-0.0582	0.2191	1022.3802	0.079459	-418.453958	-418.445713	-418.444769	-418.487352	27.707
O         -0.06790        0.01600        0.13840
C          0.00030        1.20360        0.16890
O          1.13700        1.86720       -0.16820
C          1.12840        3.27860       -0.00090
C          1.21650        3.65500        1.49680
O          0.97210        2.87440        2.37080
C          2.22620        3.87430       -0.74440
C          3.14360        4.41140       -1.30150
H         -0.83400        1.87880        0.43360
H          0.17390        3.70180       -0.36070
H          1.49630        4.71170        1.68340
H          3.95210        4.87240       -1.81470
