16
gdb 19935	3.80725	2.37643	1.92718	1.1726	62.61	-0.2399	0.0651	0.305	731.9231	0.132375	-383.701336	-383.695307	-383.694363	-383.731492	24.058
C          0.07870        1.55590        0.24530
C          1.31350        0.74910       -0.01830
O          2.12570        0.36470        1.06650
C          1.46040       -0.59840        1.86400
C          0.74130       -0.07500        3.12060
O         -0.55350       -0.21850        2.49190
C          0.03060       -0.79430        1.29600
C         -0.02420        0.05410        0.04060
H         -0.10410        1.93080        1.24540
H         -0.28650        2.18900       -0.55620
H          1.87910        0.87870       -0.93440
H          2.11300       -1.46440        2.00260
H          0.83300       -0.71710        4.00520
H          0.97180        0.96200        3.38850
H         -0.32790       -1.81430        1.13050
H         -0.50880       -0.34350       -0.84220
