16
gdb 16956	3.46192	2.28841	2.06496	1.9354	63.09	-0.2412	0.0135	0.2547	731.1691	0.132625	-383.7293	-383.723018	-383.722074	-383.759385	25.493
O         -0.03580        1.44310       -0.05170
C          0.01910        0.03220        0.03770
C          0.57860       -0.54610        1.37500
C         -0.65770       -1.36900        1.86700
O         -1.17830       -1.84680        0.61520
C         -1.42930       -0.55770        0.04820
C         -2.19490        0.15080        1.15840
C         -1.72120       -0.36550        2.29200
H          0.86400        1.77620       -0.11550
H          0.56280       -0.39100       -0.81630
H          1.43410       -1.20400        1.20340
H          0.86920        0.24760        2.06700
H         -0.44410       -2.20000        2.53800
H         -1.90480       -0.64280       -0.92750
H         -2.88840        0.96730        1.02030
H         -1.93380       -0.07410        3.31160
