17
gdb 1887	5.46976	1.97827	1.59671	1.7015	67.26	-0.2254	0.0239	0.2494	821.9987	0.147795	-309.734363	-309.726916	-309.725972	-309.765752	27.105
C          0.07310        1.54810       -0.05830
C         -0.05290        0.02820        0.05070
O          0.58070       -0.59330       -1.07640
C          1.51810       -1.56710       -0.64050
C          1.53260       -1.48170        0.86570
C          2.43930       -2.32470        1.70170
C          0.63160       -0.57960        1.24520
H          1.12470        1.84820       -0.02690
H         -0.36090        1.89490       -1.00050
H         -0.45700        2.03890        0.76510
H         -1.12570       -0.23340        0.03870
H          1.21970       -2.57120       -0.98850
H          2.50670       -1.35950       -1.08080
H          3.49270       -2.14030        1.45490
H          2.30110       -2.12830        2.76780
H          2.26090       -3.39320        1.52640
H          0.39490       -0.29660        2.26390
