14
gdb 21551	4.30024	2.0528	1.4179	4.7079	65.4	-0.2062	0.0137	0.2198	832.1955	0.110094	-374.858463	-374.851887	-374.850943	-374.889211	24.505
N          0.01000        1.45230       -0.07780
C         -0.04790        0.05950       -0.03080
C         -1.10130       -0.83110       -0.12550
C         -2.48930       -1.44980       -0.27540
C         -1.73630       -2.83860       -0.24400
N         -0.50280       -2.03580       -0.08980
N          0.82170       -1.99070        0.00040
N          1.09220       -0.69460        0.05160
H          0.94140        1.77010        0.16240
H         -0.67170        1.90290        0.51880
H         -3.17780       -1.29270        0.55790
H         -3.00430       -1.23820       -1.21480
H         -1.94840       -3.48130        0.61230
H         -1.76500       -3.41430       -1.17080
