14
gdb 2004	6.6151	1.99851	1.99845	1.3361	64.31	-0.2429	0.0352	0.2782	689.1253	0.114332	-287.322957	-287.317069	-287.316125	-287.352424	23.092
C          0.02170       -1.18650       -0.00910
C          0.00590        0.01640       -0.00690
C         -0.01190        1.45540       -0.00310
C         -0.65590        2.43390        1.01730
N         -0.03630        3.40690        0.00200
C          1.17300        2.45930        0.03730
C         -0.59010        2.44020       -1.05650
H          0.03480       -2.24850       -0.01150
H         -1.74710        2.47710        1.05970
H         -0.21040        2.49370        2.01340
H          1.75440        2.52090        0.96060
H          1.81140        2.52650       -0.84720
H         -0.08240        2.50590       -2.02200
H         -1.67650        2.48360       -1.16760
