17
gdb 15135	9.70878	0.71066	0.69189	2.5209	68.08	-0.2622	0.0221	0.2843	1579.454	0.140877	-400.967637	-400.958859	-400.957915	-401.002888	29.468
N         -0.03910        1.22000       -0.00440
C         -0.11850       -0.01940       -0.22870
O         -1.13500       -0.73460        0.28870
C         -1.08460       -2.14870        0.10080
C         -2.47440       -2.70720        0.38190
C         -2.50050       -4.21060        0.26160
C         -3.63060       -4.92970       -0.33690
O         -2.41660       -4.74240       -1.06610
H          0.77020        1.60720       -0.48520
H          0.57380       -0.61810       -0.83790
H         -0.78380       -2.39050       -0.92650
H         -0.34430       -2.58630        0.78530
H         -2.78170       -2.41200        1.39200
H         -3.18660       -2.26480       -0.32160
H         -1.88770       -4.75130        0.98610
H         -3.84240       -5.95440       -0.03530
H         -4.48780       -4.36690       -0.70410
