12
gdb 310	9.88123	2.46668	2.12799	3.0457	46.78	-0.242	-0.0206	0.2214	568.1088	0.095023	-306.369631	-306.363717	-306.362773	-306.399081	21.395
O          0.28670        1.26650       -0.42010
C          0.00170       -0.03360        0.03590
C          0.12660       -0.30480        1.57230
C         -1.30980       -0.85060        1.52410
O         -1.97020       -1.51450        2.26840
C         -1.52290       -0.30940        0.10330
H          1.24080        1.39240       -0.40500
H          0.52960       -0.79480       -0.55300
H          0.90270       -0.98360        1.93410
H          0.17400        0.63610        2.13180
H         -2.08070        0.63360        0.11540
H         -1.97200       -0.98330       -0.62890
