13
gdb 3661	3.66546	3.44857	1.80303	5.1193	56.13	-0.215	0.0147	0.2297	668.644	0.103211	-336.817321	-336.810451	-336.809507	-336.848254	24.268
C         -0.03360        1.51950        0.07460
C         -0.03360        0.02990       -0.03020
C          0.00590       -0.77200       -1.15520
N         -0.00330       -0.49520       -2.52180
N         -0.02740       -2.03300       -0.66070
N         -0.07050       -2.03210        0.69660
N         -0.08270       -0.78780        1.06400
H          0.65550        1.97730       -0.64520
H         -1.02630        1.95240       -0.09910
H          0.28350        1.81310        1.07780
H          0.04350        0.49940       -2.70050
H          0.73510       -0.96000       -3.03780
H         -0.04880       -2.90670       -1.16110
