14
gdb 19902	4.16025	2.1092	1.81764	5.1562	61.98	-0.2346	0.0288	0.2635	737.1242	0.107382	-378.629322	-378.623123	-378.622179	-378.659549	24.174
O          0.28520        0.19080       -0.58870
C          0.30620        1.38030       -0.40980
N          1.26720        2.03030        0.37060
C          2.69040        1.98520        0.26350
C          3.16830        2.22270       -1.21670
N          1.96670        2.38540       -2.06530
C          2.45390        3.51530       -1.26160
C          1.93260        3.29160        0.20530
H         -0.49820        2.07310       -0.71850
H          3.30270        1.56200        1.04990
H          4.12120        1.92710       -1.63230
H          2.26650        2.50570       -3.03100
H          2.73020        4.46570       -1.69740
H          1.82360        4.06880        0.95170
