11
gdb 21379	5.67019	2.45435	1.71291	4.7734	56.14	-0.2537	-0.0105	0.2431	667.831	0.077156	-389.768221	-389.763148	-389.762204	-389.797278	19.432
N         -0.04270        1.35220        0.01010
C          1.28950        1.71850       -0.00070
N          2.11080        0.69930       -0.01470
N          1.25650       -0.36210       -0.01240
N          1.39400       -1.70670       -0.02170
C          0.10980       -2.07180       -0.01100
N         -0.83610       -1.07610        0.00400
C         -0.04910       -0.01800        0.00240
H         -0.84090        1.96240        0.02170
H          1.60970        2.74730        0.00210
H         -0.16320       -3.11640       -0.01440
