19
gdb 6485	3.51009	1.39722	1.2451	2.3846	71.55	-0.241	-0.0167	0.2243	1053.7545	0.163401	-365.061042	-365.051924	-365.05098	-365.095256	32.944
C          0.36580        1.00750       -1.18280
C         -0.85920        0.11940       -1.05010
O         -1.82430        0.45560       -0.40420
C         -0.82180       -1.23090       -1.77310
C          0.21960       -2.19110       -1.20630
C          0.04730       -2.53740        0.25920
C          0.81310       -3.19840       -2.12250
N          1.62620       -2.06170       -1.64360
H          1.25630        0.49060       -0.80920
H          0.55150        1.24310       -2.23750
H          0.21250        1.93190       -0.62490
H         -1.82210       -1.66590       -1.68630
H         -0.61450       -1.06010       -2.83770
H         -0.91300       -3.03610        0.42890
H          0.85080       -3.19980        0.58860
H          0.06970       -1.64070        0.88770
H          1.11270       -4.16890       -1.73620
H          0.49140       -3.20710       -3.16090
H          1.70430       -1.37020       -2.38570
