15
gdb 13862	4.13691	1.64009	1.30262	2.7161	56.61	-0.2434	0.0257	0.269	906.7968	0.119918	-436.965428	-436.957811	-436.956867	-436.998503	26.98
N          0.54680        0.02180        0.75720
C         -0.17350        0.39640       -0.32760
O          0.15850        1.25190       -1.12640
C         -1.49340       -0.35820       -0.50780
C         -1.57930       -1.04760       -1.89640
O         -2.10690       -2.33290       -1.59560
C         -1.61880       -2.63140       -0.32130
O         -1.67890       -1.42440        0.42640
H          1.40410        0.50430        0.96860
H          0.16900       -0.66060        1.39250
H         -2.30480        0.36340       -0.36740
H         -2.25830       -0.54740       -2.58700
H         -0.58610       -1.11810       -2.35920
H         -2.26160       -3.37910        0.15020
H         -0.57500       -2.99270       -0.36860
