16
gdb 21309	7.24043	1.1017	0.96817	1.9987	67.03	-0.2319	0.0284	0.2603	1170.4481	0.131907	-379.925764	-379.917911	-379.916967	-379.959907	27.221
C         -0.15200        1.41280       -0.36080
O         -0.21530        0.01480       -0.50420
C         -1.02820       -0.59920        0.47300
C         -1.05060       -2.07410        0.22770
C         -0.48380       -2.74850       -0.83350
N         -0.76080       -4.06210       -0.64280
N         -1.47300       -4.29940        0.47350
C         -1.65010       -3.09260        1.00460
H          0.49610        1.79400       -1.15350
H         -1.14520        1.87960       -0.45780
H          0.26920        1.70510        0.61430
H         -0.64330       -0.37840        1.48450
H         -2.05000       -0.18030        0.43330
H          0.08100       -2.38990       -1.67740
H         -0.49380       -4.83790       -1.22400
H         -2.20230       -2.99330        1.92830
