19
gdb 1795	3.56216	2.20307	1.76903	1.0119	68.09	-0.2429	0.0883	0.3312	829.7377	0.16933	-310.902849	-310.894284	-310.89334	-310.935097	31.251
C          0.19540        1.27710        0.22640
O         -0.21890        0.00550       -0.22980
C          0.57310       -0.54190       -1.25070
C          0.40680        0.11740       -2.60330
C          1.91480       -1.11290       -0.84460
C          0.75050       -2.03450       -1.16790
C          0.09330       -2.85040       -0.07780
H          1.24580        1.27050        0.55060
H          0.07440        2.05640       -0.53910
H         -0.43910        1.52920        1.07980
H          0.75560        1.15590       -2.59800
H          0.98160       -0.41700       -3.36490
H         -0.64690        0.11400       -2.90210
H          2.74980       -1.04610       -1.53430
H          2.18590       -1.02560        0.20270
H          0.80800       -2.53520       -2.13170
H         -0.00360       -2.26650        0.83980
H         -0.91230       -3.16830       -0.37440
H          0.67780       -3.75040        0.14250
