17
gdb 8800	4.96472	1.14098	0.94391	1.2528	67.06	-0.2382	-0.0583	0.1799	1237.5317	0.140105	-401.057383	-401.047847	-401.046903	-401.092599	32.121
C         -0.03380        1.54430        0.02770
C          0.12380        0.02720        0.00540
C          0.68340       -0.50110       -1.29100
O          0.98570        0.19320       -2.23720
C          0.86300       -2.03670       -1.36470
O          0.56760       -2.76070       -0.42830
N          1.36690       -2.43200       -2.55290
C          1.63190       -3.81550       -2.88250
H          0.92750        2.04170       -0.12670
H         -0.70500        1.88150       -0.76680
H         -0.44210        1.87340        0.98680
H          0.77450       -0.33580        0.81150
H         -0.82630       -0.49290        0.18450
H          1.55320       -1.69160       -3.21430
H          1.04390       -4.13670       -3.74920
H          2.69320       -3.97470       -3.10300
H          1.35250       -4.41980       -2.01800
