13
gdb 11159	5.65406	1.31241	1.07929	2.435	69.27	-0.2631	-0.0948	0.1684	1003.0939	0.096422	-361.517779	-361.510872	-361.509928	-361.549374	24.789
O         -0.03080       -0.02240        0.00380
C         -0.01760        1.18380        0.01000
C         -1.24340        2.11140        0.03180
C         -0.68410        3.54510        0.03160
C          0.82370        3.34680        0.00960
C          1.18680        2.05330       -0.00210
C          1.71430        4.45510        0.00310
N          2.41160        5.37980       -0.00150
H         -1.86910        1.89850       -0.83920
H         -1.84470        1.88930        0.91770
H         -1.00220        4.12970       -0.83800
H         -0.97800        4.12050        0.91560
H          2.19620        1.66500       -0.01790
