16
gdb 10867	3.09686	2.02202	1.59679	2.7636	65.19	-0.2346	0.0059	0.2405	845.8651	0.129616	-383.707113	-383.699513	-383.698568	-383.738632	28.76
C          0.02660        1.49060        0.02460
C          0.01070       -0.00880       -0.00740
C          0.56790       -0.98390       -1.12180
C          0.00860       -1.97190       -0.03880
C          0.65400       -0.99980        1.02100
O          2.05260       -0.90630        1.08900
C         -1.16760       -0.99470        0.01420
O         -2.36120       -0.98840        0.02170
H          1.05250        1.87070        0.05370
H         -0.46700        1.90480       -0.86010
H         -0.50090        1.86570        0.90780
H          0.06730       -0.96920       -2.09100
H          1.65210       -0.98110       -1.20860
H          0.01470       -3.05930       -0.05030
H          0.20530       -1.01620        2.02180
H          2.38290       -1.66870        1.57430
