17
gdb 10874	2.39643	2.2531	2.05957	2.0304	69.93	-0.2414	0.0073	0.2486	823.6131	0.140842	-363.81354	-363.805696	-363.804752	-363.845276	29.443
C          0.02330        1.50230       -0.09780
N          0.01070        0.04390        0.05320
C         -1.14280       -0.59160        0.81510
C         -0.20180       -1.80580        1.01450
C          0.70790       -0.57060        1.27720
C          2.18590       -0.49610        1.50280
C         -0.48670        0.02720        2.07380
O         -0.71530        0.76920        2.97890
H          1.01120        1.80380       -0.45880
H         -0.70920        1.77430       -0.86370
H         -0.20300        2.06780        0.81880
H         -2.16380       -0.56520        0.43960
H         -0.40440       -2.47260        1.85400
H          0.03470       -2.32700        0.08550
H          2.73350       -0.93880        0.66520
H          2.51210        0.54200        1.62210
H          2.45490       -1.03630        2.41550
