15
gdb 21307	7.49361	1.11363	0.98154	5.6789	63.71	-0.2505	0.0011	0.2516	1141.3137	0.119628	-395.961333	-395.953606	-395.952662	-395.995437	26.255
C         -0.00300        1.41560        0.02710
O          0.00210        0.00610       -0.00220
C          0.66220       -0.55870        1.10120
C          0.60470       -2.04480        0.96280
C          0.05720       -2.86660        0.00670
N          0.28400       -4.16530        0.35780
N          0.94090       -4.19970        1.47710
N          1.14050       -2.91550        1.85280
H          1.01860        1.82630        0.01270
H         -0.53430        1.75440       -0.86440
H         -0.51890        1.80200        0.91980
H          1.71200       -0.21540        1.14760
H          0.18710       -0.24020        2.04730
H         -0.47290       -2.59510       -0.88980
H          1.63900       -2.72820        2.70820
