14
gdb 17516	4.65459	1.87392	1.67888	2.493	61.1	-0.2461	-0.045	0.201	774.5189	0.106263	-382.47177	-382.465337	-382.464393	-382.502919	24.199
O         -0.81830        0.99980        0.33140
C          0.30130        0.78510       -0.05950
C          1.36410        1.83300       -0.10470
C          1.68210        2.78800        1.08300
C          2.33380        3.67550        0.02730
C          2.90040        2.68490       -1.01190
O          2.66740        1.35880       -0.53810
C          1.46980        3.08400       -1.08080
H          0.62700       -0.21160       -0.42780
H          0.76440        3.22760        1.47750
H          2.29550        2.36240        1.88270
H          2.69280        4.69200        0.12130
H          3.74390        2.87090       -1.66270
H          0.82280        3.50270       -1.83820
