16
gdb 11501	6.15703	1.00904	0.93094	2.8198	75.73	-0.2303	-0.0589	0.1714	1229.9859	0.129889	-379.922776	-379.914601	-379.913657	-379.955911	29.815
N          0.19710        1.20600        0.00400
C         -0.12560       -0.13060        0.03920
C          1.04970       -1.04720       -0.06300
O          2.19330       -0.65500       -0.08820
N         -1.27070       -0.70270        0.11470
C         -2.45550        0.06560        0.20190
C         -3.73050       -0.60820       -0.26890
C         -3.50400       -0.40470        1.19790
H          1.18700        1.38030        0.11350
H         -0.41090        1.86220        0.46510
H          0.76810       -2.11560       -0.10570
H         -2.40060        1.14080        0.03240
H         -4.46430        0.00830       -0.77550
H         -3.61570       -1.61040       -0.66350
H         -3.23800       -1.26910        1.79390
H         -4.07590        0.35580        1.71760
