13
gdb 21446	5.92523	1.50656	1.20115	5.5158	65.75	-0.2206	-0.013	0.2076	929.9795	0.097008	-394.768122	-394.761219	-394.760275	-394.800184	24.697
N          0.19710        1.35680        0.00590
C          0.04130        0.09940        0.00230
N         -1.19400       -0.53140        0.01200
C         -2.46140        0.00620        0.02720
C         -3.67480       -0.63150        0.03770
C         -4.58900        0.44740        0.05110
N         -4.00090        1.61790        0.04800
O         -2.62120        1.32960        0.03310
H          1.18850        1.58610       -0.00310
H          0.84200       -0.65020       -0.00880
H         -1.17370       -1.53750        0.00810
H         -3.87370       -1.68960        0.03630
H         -5.66960        0.41010        0.06240
