18
gdb 11050	3.4469	2.33338	1.99444	1.3398	71.35	-0.2347	0.0123	0.247	773.9689	0.155583	-347.809956	-347.803402	-347.802458	-347.840021	27.268
C          0.03040        1.49710        0.07150
C         -0.02640       -0.00420       -0.06580
C          0.68940       -0.70210       -1.23790
C          0.31600       -2.10760       -0.70320
C          0.91980       -1.96840        0.72940
O          0.66710       -0.60650        1.08010
C         -1.18320       -1.94110       -0.51840
C         -1.39460       -0.67920       -0.13010
H          1.06730        1.84270        0.10370
H         -0.47490        1.97630       -0.77250
H         -0.46340        1.81630        0.99440
H          0.24500       -0.48720       -2.21100
H          1.76440       -0.49750       -1.25190
H          0.65860       -2.97980       -1.25890
H          0.44540       -2.64260        1.45220
H          2.00200       -2.15370        0.72900
H         -1.90480       -2.74670       -0.57410
H         -2.32090       -0.22840        0.20370
