14
gdb 4268	3.79666	1.95936	1.30291	7.485	66.61	-0.2266	-0.0207	0.2059	887.9444	0.108828	-378.788913	-378.781852	-378.780908	-378.820498	25.87
C         -0.02390        1.50510        0.03970
C          0.00110        0.00230       -0.03540
N         -0.03020       -0.60260       -1.17230
C         -0.00600       -2.01940       -1.23220
O         -0.03520       -2.59720       -2.30040
C          0.05540       -2.72360        0.05600
C          0.08550       -2.02940        1.20710
N          0.05840       -0.65420        1.17230
H          0.87530        1.88870        0.53520
H         -0.07270        1.90530       -0.97160
H         -0.89290        1.85600        0.60780
H          0.07550       -3.80540        0.05050
H          0.13070       -2.47920        2.19200
H          0.08040       -0.12520        2.02870
