11
gdb 341	9.04216	2.43702	1.943	0.6161	45.8	-0.2725	-0.0352	0.2374	588.7943	0.084124	-322.477268	-322.470851	-322.469907	-322.507813	20.743
C         -0.01610        1.48750        0.00170
N          0.00220        0.02610        0.00970
C         -0.08400       -0.67550        1.20390
O         -0.17760       -0.16840        2.29270
C          0.10710       -0.65400       -1.19280
O          0.18580       -0.11010       -2.26510
H          0.90410        1.86820       -0.44660
H         -0.86220        1.84520       -0.58880
H         -0.10350        1.81990        1.03450
H         -0.05700       -1.76800        1.04300
H          0.11070       -1.75100       -1.05960
