15
gdb 15223	2.70672	2.03936	1.72129	3.3232	63.67	-0.2413	-0.0591	0.1822	829.4798	0.115851	-399.770732	-399.76246	-399.761516	-399.803538	28.656
C         -0.43110        1.37140       -0.17340
N         -0.04670       -0.02660        0.04200
C          1.29340       -0.51590       -0.37400
C          2.33410        0.40690       -0.90120
O          2.61800        1.47630       -0.40970
C          0.87850       -0.38820        1.07320
C          1.53370        0.59400        2.01970
O          0.96620        1.53650        2.50550
H          0.38460        2.09320       -0.08040
H         -0.86730        1.44380       -1.17390
H         -1.19800        1.61790        0.56380
H          1.27170       -1.49510       -0.84690
H          2.84920        0.04680       -1.81730
H          0.66080       -1.33370        1.57820
H          2.57060        0.32130        2.31320
