16
gdb 21284	7.0033	1.268	1.08825	2.1623	68.28	-0.2105	0.0321	0.2426	1081.9091	0.130989	-379.943588	-379.935331	-379.934387	-379.977172	28.877
C         -0.09090        1.41390        0.01260
O         -0.00630       -0.00490        0.08300
C         -1.17970       -0.66020        0.03770
N         -2.34900       -0.04540       -0.06550
N         -3.24380       -1.07140       -0.07590
C         -2.66580       -2.29530        0.01730
C         -3.45790       -3.56170        0.02450
C         -1.30660       -2.06900        0.09420
H          0.93600        1.77940        0.06200
H         -0.56130        1.73470       -0.92310
H         -0.67520        1.81570        0.84740
H         -4.22250       -0.85610       -0.14860
H         -4.04300       -3.68060       -0.89470
H         -2.78960       -4.42090        0.10730
H         -4.15700       -3.59940        0.86790
H         -0.52060       -2.80040        0.17820
