16
gdb 14856	3.0239	1.63657	1.19067	4.5749	65.07	-0.2501	0.0215	0.2716	994.7059	0.131833	-379.902219	-379.894242	-379.893298	-379.935455	28.364
O         -0.04010        1.41300       -0.23350
C          0.07480        0.03550        0.07100
C         -1.31650       -0.58140        0.15460
N         -2.08770       -0.38440       -1.10030
C         -2.50830       -1.80480       -1.13060
C         -1.49550       -2.13430        0.01200
C         -0.32440       -2.89660       -0.38800
N          0.59930       -3.51430       -0.70830
H         -0.45590        1.45180       -1.10380
H          0.67320       -0.49590       -0.68210
H          0.59380       -0.04070        1.03200
H         -1.83200       -0.21060        1.04910
H         -2.85360        0.27410       -1.02250
H         -3.54360       -1.98770       -0.82120
H         -2.32980       -2.30340       -2.08690
H         -1.94170       -2.61270        0.88520
