14
gdb 14811	2.61334	2.09485	1.32501	6.4095	65.83	-0.3212	-0.0015	0.3197	902.4579	0.108326	-341.600395	-341.593042	-341.592098	-341.632499	26.176
N         -0.64970       -0.91880       -0.76320
C         -0.37130        0.13560       -0.38050
C         -0.03280        1.45660        0.11590
C          0.13630        1.67070        1.65120
C          1.32010        2.62520        1.35490
C          1.42770        2.01960       -0.08600
C          2.46180        1.00500       -0.21160
N          3.29820        0.21150       -0.29460
H         -0.73880        2.18200       -0.29740
H         -0.72760        2.07230        2.18130
H          0.46490        0.75230        2.14100
H          1.01440        3.67240        1.30790
H          2.20650        2.53680        1.98180
H          1.52850        2.73310       -0.90640
