24
gdb 6549	2.88194	1.48166	1.32985	0.0785	85.09	-0.2609	0.0757	0.3366	1119.6065	0.221698	-314.267222	-314.257305	-314.256361	-314.301223	38.116
C          1.97240       -0.81380       -0.88040
C          0.68880       -0.34590       -0.22510
C         -0.10720       -1.25570        0.68420
C          0.49650        0.01410        1.23590
C          1.52570        0.10140        2.37160
C          2.28220        1.43850        2.23740
C          0.73670        0.09970        3.69890
C          2.54650       -1.04950        2.42180
H          2.47790       -1.58980       -0.30250
H          1.75290       -1.23840       -1.86680
H          2.68010        0.00980       -1.02980
H          0.08910        0.27040       -0.89180
H         -1.18440       -1.32510        0.57260
H          0.36510       -2.19620        0.95090
H         -0.23500        0.81300        1.35340
H          1.58740        2.28560        2.23460
H          2.97910        1.58190        3.07090
H          2.85700        1.47500        1.30640
H          0.18620       -0.83810        3.82730
H          1.41070        0.21680        4.55480
H          0.01110        0.91990        3.73060
H          3.23370       -1.03140        1.57330
H          3.15190       -0.96240        3.33070
H          2.05880       -2.02890        2.44990
