15
gdb 11923	3.38337	1.80151	1.50992	2.9946	67.14	-0.258	0.0094	0.2674	870.8081	0.1184	-362.642035	-362.634639	-362.633694	-362.673568	27.476
C          0.02680        1.50570       -0.03490
C          0.02760        0.01680        0.04710
C         -0.86980       -0.84560        0.86640
C          0.64140       -0.98680        1.04550
C          1.21460       -1.65400       -0.20450
O          0.52790       -0.71690       -1.07130
C          1.31290       -0.78920        2.28080
N          1.86690       -0.62230        3.28430
H          1.01520        1.88090       -0.31300
H         -0.69270        1.83690       -0.79200
H         -0.26180        1.94270        0.92450
H         -1.36720       -0.35670        1.69720
H         -1.42110       -1.65720        0.39990
H          2.29910       -1.54070       -0.29310
H          0.92330       -2.69290       -0.39260
