13
gdb 13158	4.3447	1.42422	1.17666	2.6072	59.51	-0.2728	-0.0962	0.1766	961.7501	0.094685	-398.586701	-398.57907	-398.578126	-398.620491	25.37
O          0.22710       -0.07050        0.52120
C          0.01860        1.08350        0.24650
C          1.13370        1.96660       -0.16730
N          1.98670        2.67710       -0.49090
C         -1.32610        1.75910        0.25050
C         -1.95380        1.96640       -1.16340
O         -3.01120        1.04510       -0.86280
C         -2.54350        0.84830        0.48910
H         -1.26960        2.67230        0.84790
H         -2.31860        2.98290       -1.34930
H         -1.34260        1.64170       -2.01390
H         -2.29930       -0.19730        0.69750
H         -3.25850        1.22120        1.23050
