20
gdb 9854	3.08152	1.58297	1.24819	1.574	71.43	-0.2494	0.0729	0.3223	1055.7758	0.174283	-386.114581	-386.105111	-386.104166	-386.148534	34.848
C          0.03080        1.48170       -0.13090
O         -0.16080        0.08820       -0.19910
C          0.66940       -0.58490       -1.13470
C          2.08490       -0.79390       -0.58500
C         -0.00490       -1.90930       -1.48140
O          0.69330       -2.63410       -2.46320
C         -0.75950       -2.68210       -0.43190
C         -1.49410       -2.00170       -1.57430
H          1.02770        1.75410        0.24500
H         -0.10910        1.95870       -1.11320
H         -0.71750        1.87500        0.56180
H          0.72930        0.00620       -2.06400
H          2.71120       -1.29880       -1.32640
H          2.56650        0.15920       -0.34990
H          2.05270       -1.39760        0.32760
H          1.41600       -3.10080       -2.03060
H         -0.67800       -3.76330       -0.46330
H         -0.85090       -2.24600        0.55560
H         -2.07310       -1.11710       -1.34110
H         -1.88470       -2.63190       -2.36470
