17
gdb 14361	4.34504	2.22735	1.92679	2.1537	73.18	-0.2167	0.004	0.2207	747.8848	0.145117	-326.623791	-326.618098	-326.617154	-326.653107	24.416
C         -0.03230        1.47500        0.04630
N          1.48850        1.31600        0.10810
C          1.17290        0.10600        1.02920
C          0.12060       -0.06040       -0.10530
C         -0.88300       -0.91570       -0.86730
C         -0.55900       -0.40370       -2.28310
C          0.57320        0.31600       -2.37370
C          1.27830        0.25650       -1.04340
H         -0.46350        1.85110        0.97860
H         -0.38230        2.05070       -0.81180
H          1.98270       -0.62570        1.09020
H          0.83290        0.41490        2.02090
H         -0.70010       -1.99600       -0.79120
H         -1.92780       -0.74090       -0.58820
H         -1.20460       -0.63430       -3.12490
H          0.97280        0.72500       -3.29440
H          2.14220       -0.41870       -1.07090
