16
gdb 273	7.4215	1.74761	1.51679	0.18	53.18	-0.2583	0.0719	0.3302	802.5075	0.141169	-308.764658	-308.756772	-308.755828	-308.796363	27.553
C         -0.02270        1.54340        0.04720
C         -0.01230        0.01480        0.03110
O          0.73110       -0.50700        1.13390
C         -1.42570       -0.57480       -0.02380
C         -1.43650       -2.09550       -0.10560
O         -2.79240       -2.52080       -0.12150
H          0.99870        1.92860        0.10780
H         -0.49600        1.94760       -0.85330
H         -0.58270        1.91800        0.91340
H          0.54810       -0.32590       -0.84930
H          0.30510       -0.19660        1.94110
H         -1.98820       -0.26480        0.86810
H         -1.96350       -0.16650       -0.88790
H         -0.90670       -2.41950       -1.01710
H         -0.89020       -2.51030        0.75270
H         -2.80290       -3.48220       -0.12280
