22
gdb 8178	2.5963	2.41756	1.65347	0.0976	81.22	-0.2822	0.0842	0.3664	910.7184	0.202038	-313.075299	-313.067609	-313.066665	-313.106459	31.573
C         -0.09280        1.53620        0.01630
C          0.06650        0.01630        0.03020
C          1.00790       -0.55430       -1.08690
C          1.98280       -1.36050       -0.20960
C          2.28810       -0.35690        0.93490
C          0.77940       -0.58310        1.27650
C          0.20180       -0.27720        2.64000
C          1.01790       -2.04980        0.79410
H          0.86820        2.04860        0.13500
H         -0.52530        1.87010       -0.93310
H         -0.75580        1.87960        0.81760
H         -0.93210       -0.43110       -0.05270
H          0.47530       -1.17930       -1.81020
H          1.51480        0.24170       -1.64330
H          2.77540       -1.91200       -0.71670
H          2.94690       -0.77620        1.70010
H          2.62480        0.64960        0.66830
H          0.22620        0.79670        2.85670
H         -0.84330       -0.60350        2.70880
H          0.76160       -0.78680        3.43140
H          0.16270       -2.60530        0.39420
H          1.54160       -2.65260        1.54090
