13
gdb 23748	3.34224	2.3272	1.3732	1.0325	64.36	-0.214	-0.0149	0.1991	816.7641	0.09749	-402.811286	-402.804933	-402.803989	-402.841536	24.886
N         -0.02280        1.38180        0.16940
C         -0.00900        0.00880        0.06580
N         -1.17170       -0.64190        0.04530
C         -1.15100       -1.97980        0.00360
C          0.00950       -2.73780       -0.02850
C          1.23440       -2.06120       -0.02140
C          1.21190       -0.68880        0.02730
F          2.34990        0.02890        0.02800
H          0.80180        1.86460       -0.15000
H         -0.90150        1.80750       -0.08310
H         -2.12420       -2.46380       -0.00820
H         -0.03150       -3.81940       -0.06480
H          2.18540       -2.58060       -0.05320
