16
gdb 17027	6.92296	1.32313	1.27803	3.9012	70.63	-0.2369	0.0206	0.2576	966.2433	0.13118	-342.716437	-342.709398	-342.708454	-342.747481	26.904
N         -0.63800       -1.13680        0.18180
C         -0.38790       -0.00780        0.18200
C         -0.08980        1.41140        0.16060
C         -0.05010        2.21760        1.50000
C          1.25120        1.45610        1.88170
C          1.37630        1.90140        0.39670
N          0.73840        3.24530        0.70580
C          1.52030        4.24100        1.43110
H         -0.60250        1.92900       -0.65060
H         -0.90410        2.49100        2.12050
H          1.91330        1.93510        2.60040
H          1.16940        0.38610        2.08260
H          2.21540        1.79950       -0.29220
H          2.21320        4.71040        0.72560
H          0.83630        5.01750        1.78820
H          2.10410        3.88230        2.29140
