20
gdb 15676	2.86884	1.76876	1.17599	1.651	77.83	-0.2241	0.0253	0.2494	1077.7959	0.176282	-349.022627	-349.013852	-349.012908	-349.05607	31.964
C          0.10600        1.55640        0.08410
C          0.06380        0.02690        0.04640
C          0.58010       -0.54500       -1.28020
O          1.92820       -0.11870       -1.50350
C          2.77240       -1.24070       -1.74450
C          1.87930       -2.43750       -1.60250
C          0.63080       -2.05700       -1.34530
C         -0.58530       -2.90750       -1.16430
H          1.12600        1.91360       -0.07860
H         -0.52910        1.98780       -0.69800
H         -0.24470        1.93830        1.04770
H          0.66970       -0.38960        0.86060
H         -0.96510       -0.32290        0.20030
H         -0.05550       -0.14830       -2.09430
H          3.21740       -1.16840       -2.75090
H          3.60700       -1.23850       -1.02570
H          2.23040       -3.45630       -1.71500
H         -0.35560       -3.96700       -1.30310
H         -1.01900       -2.78320       -0.16490
H         -1.36920       -2.63200       -1.88130
