8
gdb 108	20.01906	2.89728	2.57099	3.5925	40.56	-0.2911	0.0111	0.3022	448.7393	0.05503	-208.842347	-208.837159	-208.836215	-208.87023	17.258
C         -0.02170       -1.21620       -0.00420
C          0.00120       -0.01720        0.00200
C          0.01170        1.44330        0.00970
C          1.36630        2.01050       -0.00020
N          2.42420        2.47250       -0.00780
H         -0.03720       -2.27840       -0.00980
H         -0.53080        1.83300       -0.86100
H         -0.51400        1.82360        0.89480
