12
gdb 553	10.17573	2.39853	2.15322	1.2731	51.72	-0.2533	0.0374	0.2907	579.431	0.095926	-269.170061	-269.164157	-269.163213	-269.199558	20.748
C         -0.12730       -1.24060       -0.16460
C         -0.06270       -0.04360       -0.07060
C          0.03050        1.39360        0.05940
C         -0.09110        2.02680        1.47500
O          1.12870        2.76780        1.29170
C          1.43900        2.05360        0.08170
H         -0.18830       -2.29710       -0.25180
H         -0.63110        1.88720       -0.65770
H         -0.95340        2.68040        1.64350
H         -0.01640        1.29700        2.29040
H          2.25770        1.33690        0.21950
H          1.67460        2.72650       -0.74950
