22
gdb 15713	3.2566	1.49107	1.20237	1.3491	77.53	-0.2604	0.0689	0.3293	1110.1347	0.201154	-350.226139	-350.217142	-350.216198	-350.260141	33.463
C         -0.02310        1.58550        0.12690
C          0.03030        0.05470        0.08930
C         -1.34660       -0.60230       -0.04050
C         -2.12060       -0.28220       -1.34150
C         -3.11980       -1.45730       -1.54110
C         -2.75350       -2.50810       -0.46000
C         -1.33050       -2.13940       -0.01820
O         -0.35710       -2.56930       -0.96980
H          0.97740        2.01220        0.24940
H         -0.44610        1.99520       -0.79610
H         -0.64020        1.94260        0.95980
H          0.65890       -0.27910       -0.74280
H          0.51450       -0.31240        1.00380
H         -1.96300       -0.29040        0.81560
H         -2.62450        0.68640       -1.29270
H         -1.41710       -0.23780       -2.17870
H         -4.15890       -1.13310       -1.43670
H         -3.02290       -1.87820       -2.54500
H         -3.42710       -2.43250        0.40150
H         -2.81780       -3.54030       -0.82190
H         -1.08590       -2.53390        0.97960
H         -0.42520       -3.52530       -1.05030
