19
gdb 17825	4.56309	1.31449	1.13456	1.6442	72.41	-0.2233	0.072	0.2953	1094.68	0.165385	-365.003561	-364.995382	-364.994438	-365.036842	29.689
C         -0.37860        1.33910       -0.15280
N          0.04730       -0.04160        0.03270
C          1.44320       -0.36740       -0.21720
C          0.89260       -0.41540        1.16930
C          1.36240        0.56020        2.21430
C          0.53180        0.69110        3.51460
C          1.83490        0.27180        4.22010
O          2.49180        0.03180        2.95680
H          0.40350        2.09380        0.02250
H         -0.72600        1.45610       -1.18450
H         -1.22170        1.55410        0.51200
H          1.63480       -1.28350       -0.76960
H          2.12580        0.45210       -0.44400
H          0.64180       -1.39040        1.58730
H          1.62130        1.52630        1.76390
H          0.14630        1.68510        3.74520
H         -0.27810       -0.03730        3.59200
H          2.32950        1.06840        4.79110
H          1.79390       -0.63240        4.83790
