16
gdb 13686	5.16714	1.01797	0.97606	5.3147	62.61	-0.2727	0.007	0.2798	1206.5027	0.128289	-420.875574	-420.867037	-420.866093	-420.909711	29.234
C          0.30160        1.30470       -0.32300
C          0.15570       -0.09830        0.21030
O          1.34230       -0.78260        0.62980
C          0.33770       -0.50790        1.61390
C          0.73390        0.42800        2.72530
O          1.48890       -0.27100        3.72540
C          2.82010       -0.38770        3.51660
O          3.53150       -0.98320        4.26680
H          0.98520        1.90810        0.27700
H          0.69140        1.27290       -1.34540
H         -0.67310        1.80300       -0.35300
H         -0.51480       -0.72810       -0.37800
H         -0.19750       -1.39330        1.96050
H          1.31000        1.27520        2.34180
H         -0.14970        0.81100        3.24300
H          3.15880        0.12640        2.59860
