15
gdb 15066	3.16956	1.57943	1.18105	3.1927	60.91	-0.2837	0.0204	0.3041	995.2756	0.1179	-399.778401	-399.770154	-399.76921	-399.811666	28.724
O          0.23180        1.27050       -0.15130
C          0.02770       -0.11690       -0.04030
C         -1.47460       -0.48880        0.09440
C         -2.19820       -0.00250       -1.08200
N         -2.73330        0.41440       -2.01800
C         -1.64240       -1.98590        0.31330
C         -2.70670       -2.79260       -0.29330
O         -1.36680       -2.82840       -0.79910
H         -0.09360        1.55630       -1.01250
H          0.45320       -0.67620       -0.88380
H          0.54060       -0.43630        0.87220
H         -1.87070        0.04120        0.97000
H         -1.21020       -2.32590        1.25600
H         -3.03850       -3.69910        0.20940
H         -3.43500       -2.31880       -0.94740
