18
gdb 19615	3.68036	1.95048	1.61255	1.8055	70.41	-0.2415	0.0839	0.3255	856.8114	0.154465	-347.748883	-347.741843	-347.740899	-347.779637	28.399
C          0.01870        1.59890        0.00800
C          0.10650        0.07730        0.00180
C          0.83380       -0.67860       -1.11770
C          2.31300       -0.79970       -0.73220
C          1.28050       -1.76400       -0.17290
C          1.06730       -0.67950        0.96740
C          2.49430       -0.15230        0.63990
O          3.51900       -0.73920        1.41470
H          0.98760        2.07200       -0.17380
H         -0.66700        1.94730       -0.77230
H         -0.36120        1.96620        0.96820
H         -0.89830       -0.34910        0.10770
H          0.52850       -0.79410       -2.15110
H          3.07590       -0.99310       -1.47650
H          1.17630       -2.83780       -0.22290
H          0.79810       -0.86860        2.00550
H          2.66890        0.92520        0.70590
H          3.44860       -1.69560        1.30610
