11
gdb 2500	4.51369	2.23839	1.49634	5.1121	51.59	-0.2644	-0.0498	0.2146	738.6691	0.077313	-376.604739	-376.597743	-376.596799	-376.636213	23.
N         -0.01200        1.30520        0.00910
C         -0.03510        0.04070        0.00260
N         -1.23370       -0.69520        0.01010
C         -2.48060        0.00100        0.02560
O         -3.55180       -0.52950        0.03310
C         -1.13220       -2.10340        0.00170
O         -2.04140       -2.87850        0.00610
H          0.94530        1.64950        0.00190
H          0.84300       -0.61390       -0.00910
H         -2.30610        1.08580        0.02970
H         -0.06780       -2.41290       -0.01000
