18
gdb 8879	3.92567	1.14314	0.94481	2.4122	64.94	-0.2585	-0.0321	0.2263	1235.5239	0.151318	-422.095078	-422.085646	-422.084702	-422.130083	33.171
C         -0.02990        1.56030       -0.03010
C         -0.09200        0.03570       -0.10410
C         -1.50220       -0.51370       -0.12790
O         -2.48380        0.19660       -0.21370
C         -1.70190       -2.02710       -0.06060
O         -3.07500       -2.32510        0.03720
C         -1.13660       -2.74070       -1.30850
O         -1.50210       -4.09870       -1.29200
H          1.00840        1.90180       -0.03170
H         -0.54660        2.01260       -0.87960
H         -0.51310        1.92730        0.87920
H          0.41950       -0.33310       -1.00470
H          0.44120       -0.43180        0.73440
H         -1.18300       -2.42130        0.82600
H         -3.52750       -1.47630       -0.10480
H         -1.51420       -2.22830       -2.21000
H         -0.04270       -2.69650       -1.32250
H         -2.44700       -4.10600       -1.08910
