14
gdb 2977	4.39172	2.00431	1.47018	4.5906	57.81	-0.2568	0.0152	0.272	800.841	0.114492	-320.725883	-320.718633	-320.717689	-320.75739	25.685
N         -0.24390        1.61670       -0.00460
C          0.04330        0.18040       -0.06310
C         -1.20600       -0.56540        0.17150
N         -2.18150       -1.16330        0.32960
C          0.70990       -0.29870       -1.35120
C          2.19230       -0.29820       -1.43170
N          1.44370       -1.56560       -1.39840
H          0.61080        2.12800       -0.20650
H         -0.91330        1.86480       -0.72790
H          0.71620       -0.05600        0.77390
H          0.12910       -0.09110       -2.24820
H          2.68840       -0.08280       -2.37330
H          2.74920        0.00500       -0.54730
H          1.49250       -1.98620       -0.47270
