19
gdb 6284	2.94235	1.21127	1.05892	4.8931	71.96	-0.279	0.038	0.317	1211.756	0.163615	-365.088524	-365.078903	-365.077959	-365.122994	34.448
C          0.00390        1.59320       -0.07390
C         -0.00580        0.06670       -0.03470
O          0.56750       -0.42960        1.17470
C         -1.41240       -0.51080       -0.24680
C         -1.43790       -2.05500       -0.27280
C         -2.86880       -2.62160       -0.21960
C         -0.73340       -2.55740       -1.45800
N         -0.18880       -2.94180       -2.40270
H          1.01530        1.96850        0.10260
H         -0.34140        1.96750       -1.04270
H         -0.65660        2.00880        0.69830
H          0.65220       -0.31630       -0.82380
H          0.12520        0.00900        1.91040
H         -2.06240       -0.17670        0.57340
H         -1.84290       -0.11760       -1.17490
H         -0.87650       -2.40160        0.60260
H         -2.86090       -3.71420       -0.23240
H         -3.36310       -2.29010        0.69810
H         -3.45900       -2.27510       -1.07290
