16
gdb 10166	2.56021	1.22826	0.88615	2.7305	63.5	-0.2565	-0.0581	0.1983	1244.4883	0.126612	-420.879851	-420.870359	-420.869415	-420.915784	31.159
O         -0.09590        1.41300        0.03380
C          0.03070        0.00360       -0.01740
C         -1.38240       -0.57170        0.01420
C         -1.40000       -2.11980       -0.03960
C         -0.78140       -2.68500        1.23050
O          0.20520       -3.37120        1.26340
C         -2.84730       -2.57910       -0.16090
O         -3.29470       -3.16140       -1.11170
H          0.78430        1.79840       -0.00590
H          0.54130       -0.32580       -0.93600
H          0.61590       -0.37980        0.83350
H         -1.88810       -0.21890        0.92170
H         -1.94420       -0.17190       -0.83630
H         -0.84400       -2.49670       -0.90160
H         -1.31700       -2.39770        2.16560
H         -3.49080       -2.30930        0.70770
