19
gdb 15092	3.29338	1.35776	1.06591	3.7952	67.26	-0.2435	0.0531	0.2965	1121.416	0.165618	-402.151875	-402.142983	-402.142039	-402.1856	32.403
O          0.32160        1.25470        0.00270
C          0.01790       -0.11150       -0.16960
C         -1.47660       -0.44890        0.04020
C         -2.34360        0.04330       -1.12170
O         -2.08020        1.43100       -1.33210
C         -1.62710       -1.93670        0.33030
C         -2.73330       -2.79570       -0.16430
N         -1.36470       -2.97990       -0.68140
H         -0.29790        1.73770       -0.55900
H          0.33230       -0.47880       -1.16300
H          0.61370       -0.65830        0.56940
H         -1.79500        0.09500        0.93940
H         -2.11300       -0.52670       -2.03630
H         -3.40690       -0.10780       -0.89110
H         -2.53500        1.71580       -2.12950
H         -1.20280       -2.20510        1.29650
H         -3.10160       -3.60940        0.45450
H         -3.48350       -2.36590       -0.82140
H         -1.29130       -2.56390       -1.60680
