17
gdb 2948	5.46075	2.03151	1.71257	0.6223	60.26	-0.2588	0.0883	0.3471	781.8544	0.149473	-346.860243	-346.853079	-346.852134	-346.891881	25.596
C         -0.01970        1.27830        0.33620
O         -0.11890       -0.13240        0.27120
C         -1.37400       -0.58490       -0.17290
C         -1.31370       -2.12470       -0.25810
C         -2.31200       -2.60150        0.82010
C         -2.50270       -1.34110        1.67150
O         -2.40930       -0.26670        0.73580
H          0.99130        1.51340        0.67660
H         -0.17810        1.73540       -0.65290
H         -0.74870        1.70230        1.03640
H         -1.63480       -0.08300       -1.11580
H         -1.57860       -2.47910       -1.25610
H         -0.29110       -2.44230       -0.04520
H         -3.26370       -2.89190        0.36570
H         -1.94150       -3.45090        1.39890
H         -3.47740       -1.27250        2.16030
H         -1.71780       -1.25560        2.43640
