18
gdb 16548	3.09294	2.67868	2.13012	0.183	75.37	-0.2227	0.0113	0.234	743.915	0.157848	-310.684964	-310.679046	-310.678102	-310.714439	25.426
C         -0.01440        1.53870       -0.02490
C          1.50690        1.80760        0.00230
C          2.03250        1.51410        1.43480
C          1.39250        0.28340        2.04080
C          0.45510       -0.42590        1.40880
C         -0.00040       -0.00670        0.01580
C          1.14320       -0.29490       -0.96320
C          1.99370        0.73220       -0.96140
H         -0.55490        1.98120        0.81670
H         -0.44910        1.89870       -0.96230
H          1.78090        2.82320       -0.29760
H          3.12550        1.39300        1.42250
H          1.84030        2.38110        2.08300
H          1.73970       -0.01560        3.02730
H          0.02720       -1.31640        1.86030
H         -0.95160       -0.47020       -0.25560
H          1.26730       -1.23920       -1.48000
H          2.94280        0.78130       -1.48290
