14
gdb 15313	2.95412	1.73668	1.19642	3.888	64.73	-0.2588	0.0005	0.2594	966.9083	0.104783	-382.506658	-382.498749	-382.497805	-382.539344	28.243
O          0.37090        0.10010       -0.27140
C          0.49060        1.27680       -0.41740
O          0.93870        2.08420        0.57850
C          0.97300        3.46070        0.30520
C          2.11200        4.21210        0.89850
C          2.05730        4.01840       -0.61430
C          2.97130        3.13080       -1.26630
C          3.71930        2.37580       -1.82920
H          0.25300        1.83130       -1.34270
H         -0.00730        3.92730        0.26420
H          1.93340        5.20560        1.29200
H          2.84590        3.62050        1.43190
H          1.76070        4.88660       -1.19600
H          4.38630        1.70950       -2.31810
