18
gdb 14970	4.39278	1.36872	1.08826	2.438	70.52	-0.2314	0.0304	0.2618	1078.3369	0.154406	-384.938736	-384.93074	-384.929796	-384.971284	29.422
O          0.06760        1.42620       -0.02590
C          0.01270        0.01310        0.00010
C         -1.41250       -0.46310        0.00360
C         -2.45710        0.36210        0.03660
C         -3.87600       -0.13220        0.01010
O         -3.99540       -1.51310       -0.27990
C         -3.04620       -2.29590        0.41960
C         -1.62130       -1.95910       -0.02560
H          0.99150        1.68980       -0.00920
H          0.53160       -0.42510       -0.87200
H          0.52460       -0.39040        0.89280
H         -2.30640        1.43530        0.08470
H         -4.36980        0.10200        0.97240
H         -4.44730        0.38870       -0.76790
H         -3.14160       -2.13690        1.50700
H         -3.29410       -3.34010        0.20870
H         -1.44160       -2.35140       -1.03610
H         -0.90090       -2.46290        0.63390
