14
gdb 691	6.44379	3.58724	2.94944	1.4055	52.75	-0.25	0.0768	0.3269	499.0357	0.12054	-270.396464	-270.390923	-270.389979	-270.425102	21.241
O         -0.08580        1.44960       -0.07410
C         -0.02510        0.04360        0.03780
C          0.23950       -0.59390        1.45070
C         -1.11780       -1.29700        1.34550
C         -2.20320       -0.27240        1.19720
C         -1.38650       -0.63570       -0.01260
H          0.80890        1.79580        0.00410
H          0.65920       -0.38060       -0.70950
H          1.09830       -1.26930        1.45240
H          0.34010        0.11930        2.27570
H         -1.32090       -2.31770        1.64370
H         -3.21720       -0.65880        1.19130
H         -2.09780        0.70990        1.64900
H         -1.84070       -1.05090       -0.90390
