17
gdb 16521	3.65273	2.41316	1.85623	0.6312	66.65	-0.2307	0.0814	0.312	764.6077	0.143791	-363.817253	-363.810805	-363.80986	-363.847382	25.985
C         -0.03390        1.46570        0.02450
C         -0.02340       -0.03630       -0.06940
C          0.93840       -0.72030       -1.03950
O          0.34280       -1.98060       -1.36370
C         -0.60970       -2.23030       -0.34300
C          0.04580       -2.18310        1.05680
N         -0.32470       -0.73430        1.22470
C         -1.23760       -0.86620        0.02440
H          0.94500        1.84250        0.34090
H         -0.27550        1.91850       -0.94300
H         -0.77020        1.79420        0.76150
H          1.05350       -0.13730       -1.96030
H          1.93650       -0.86140       -0.60050
H         -1.22240       -3.08390       -0.62930
H         -0.49620       -2.76210        1.80870
H          1.11430       -2.41580        1.11440
H         -2.26880       -0.53440        0.01060
