18
gdb 11961	3.3494	1.61617	1.34735	0.766	68.63	-0.2452	0.0705	0.3156	969.3151	0.15281	-384.900354	-384.892007	-384.891063	-384.933061	31.268
O          0.02350        1.28740       -0.47080
C          0.02660       -0.03180        0.06920
C         -1.37830       -0.53390        0.12300
C         -2.10070       -1.03200       -1.11530
C         -1.91220       -1.96210        0.04790
O         -1.17040       -3.12890       -0.04500
C         -2.93500       -1.67730        1.15230
C         -2.42230       -0.19690        1.19710
H          0.92300        1.62610       -0.42670
H          0.63100       -0.71630       -0.54720
H          0.45950       -0.03720        1.08280
H         -3.08060       -0.64050       -1.38120
H         -1.44620       -1.23170       -1.95840
H         -1.59600       -3.70960       -0.68500
H         -3.98910       -1.84070        0.90280
H         -2.69850       -2.21960        2.07060
H         -1.97720        0.06340        2.16070
H         -3.14750        0.57550        0.92490
