19
gdb 12535	3.3607	1.80474	1.2521	2.3096	72.62	-0.2395	0.02	0.2595	989.9919	0.16703	-365.074179	-365.066292	-365.065348	-365.106562	29.501
C         -0.18540        1.50920        0.03680
C          0.03140       -0.01070       -0.00010
C          0.69630       -0.44710       -1.30910
C          0.73210       -1.96300       -1.52970
N          1.51470       -2.79040       -0.62760
C          1.52330       -2.69750        0.62790
O          0.93400       -1.82450        1.49320
C          0.86800       -0.42440        1.21000
H          0.76890        2.04620       -0.01730
H         -0.79540        1.83540       -0.81060
H         -0.69260        1.82110        0.95560
H         -0.94570       -0.50720        0.08390
H          0.15790       -0.00420       -2.15670
H          1.71920       -0.04720       -1.34780
H         -0.30060       -2.34460       -1.51240
H          1.10510       -2.15640       -2.54150
H          2.04450       -3.46250        1.20630
H          1.89220       -0.04050        1.09260
H          0.45030        0.00780        2.12360
