13
gdb 21357	5.46592	2.17714	1.55698	2.6588	65.47	-0.2014	0.0129	0.2143	744.0731	0.100352	-357.670079	-357.664327	-357.663383	-357.69956	22.859
N         -0.02130        1.38930        0.01010
C          1.28570        1.83410        0.00000
C          2.16150        0.76780       -0.01460
C          1.33320       -0.38910       -0.01310
C         -0.00500        0.01210        0.00210
C         -0.77100       -1.17120        0.00270
N          0.03410       -2.23370       -0.01120
N          1.30340       -1.75050       -0.02070
H         -0.83160        1.98130        0.02150
H          1.49870        2.89200        0.00400
H          3.23740        0.83440       -0.02460
H         -1.84070       -1.31330        0.01220
H          2.06480       -2.40470       -0.03150
