20
gdb 20056	5.14605	1.29432	1.09889	0.1177	80.79	-0.2343	0.0294	0.2636	1121.0347	0.178897	-311.86971	-311.862151	-311.861206	-311.901862	29.284
C         -0.18770        1.42460       -0.16300
C          1.25680        1.06600        0.08800
C          0.20970       -0.01780        0.02800
C         -0.19750       -0.77170        1.27800
C         -1.61450       -1.40940        1.19770
C         -1.51760       -2.76020        1.95060
C         -0.03200       -3.03710        1.95530
C          0.67690       -1.96760        1.60080
H         -0.73450        1.90870        0.64010
H         -0.47180        1.75820       -1.15490
H          1.96010        1.15370       -0.73280
H          1.67670        1.31220        1.05820
H          0.21540       -0.63150       -0.87030
H         -0.15260       -0.06010        2.11870
H         -2.39420       -0.75350        1.59300
H         -1.85490       -1.59640        0.14530
H         -1.89850       -2.68370        2.97920
H         -2.10100       -3.55360        1.46940
H          0.38430       -3.99220        2.25800
H          1.75980       -1.91200        1.56340
