16
gdb 13465	3.32586	1.8942	1.23494	3.2045	68.99	-0.2552	-0.0174	0.2379	951.9035	0.130628	-379.959143	-379.951191	-379.950246	-379.991848	28.4
C         -0.03360        1.47800        0.00900
C          0.05560       -0.02320        0.00280
N          1.18380       -0.61710       -0.00930
N         -1.17100       -0.69250        0.01100
C         -1.46580       -2.13480        0.00810
C         -2.97600       -1.76900        0.02310
C         -2.51440       -0.30000        0.02370
O         -3.03780        0.77820        0.03240
H          0.97760        1.88320        0.00130
H         -0.59010        1.83870       -0.86070
H         -0.57410        1.83230        0.89130
H          1.07620       -1.63360       -0.01200
H         -1.11510       -2.64830       -0.89170
H         -1.09910       -2.65510        0.89760
H         -3.54110       -2.05830       -0.86430
H         -3.52490       -2.06420        0.91870
