10
gdb 157	8.50694	8.12007	4.38248	1.6299	38.7	-0.2479	0.0241	0.272	315.6279	0.081779	-247.215049	-247.210764	-247.20982	-247.242343	14.168
C         -0.01250        1.42330       -0.06590
C          1.49700        1.75930        0.06250
N          2.13730        0.48030        0.42600
C          1.19930       -0.36740        0.48500
O         -0.07840        0.00630        0.23330
H         -0.64380        1.95180        0.65340
H         -0.41370        1.57700       -1.07120
H          1.92570        2.13480       -0.87210
H          1.69760        2.50630        0.83710
H          1.31490       -1.41770        0.72870
