16
gdb 5126	3.50656	2.00162	1.29486	2.879	67.78	-0.1906	0.0488	0.2394	928.0235	0.130176	-379.961004	-379.952305	-379.951361	-379.994995	29.82
C          0.07670        1.45990        0.00450
N         -0.03730        0.01700        0.01530
C         -0.38540       -0.81520       -1.01960
N         -0.39050       -2.07320       -0.66220
C         -0.03000       -2.09530        0.67440
C          0.07880       -3.36480        1.45460
C          0.18750       -0.80620        1.09130
O          0.55260       -0.22610        2.26500
H          1.09340        1.77430        0.25830
H         -0.16550        1.82060       -0.99670
H         -0.61450        1.91270        0.72150
H         -0.61930       -0.42500       -1.99930
H          0.37430       -3.17700        2.49400
H         -0.87440       -3.90450        1.47880
H          0.82380       -4.04090        1.02060
H          0.67340       -0.92090        2.91960
