17
gdb 16057	3.44218	1.74224	1.44793	3.1883	70.64	-0.2442	-0.0259	0.2183	916.0729	0.141544	-363.827192	-363.819538	-363.818593	-363.859014	28.567
C         -0.12980        1.50580       -0.00300
N          0.09510        0.07130        0.11430
C          1.35380       -0.55350       -0.15660
C          2.57980        0.24490        0.32850
C          1.97370        0.29190        1.76400
C          0.76050       -0.51030        1.26610
C          0.09670       -1.61350        1.98270
O          0.41010       -1.98700        3.08850
H          0.70970        2.13590        0.31820
H         -0.34910        1.73430       -1.05010
H         -1.00640        1.77050        0.59480
H          1.37420       -1.38980       -0.84830
H          3.49520       -0.34750        0.28340
H          2.75810        1.19860       -0.17630
H          2.55110       -0.28400        2.48760
H          1.75790        1.27540        2.18920
H         -0.72230       -2.09170        1.40250
