17
gdb 19929	3.7825	2.29398	1.87579	1.3654	65.9	-0.2301	0.0609	0.291	757.0972	0.145142	-363.816218	-363.81009	-363.809146	-363.846525	24.448
C         -0.00400        1.48900        0.21650
C          1.25340        0.72190        0.03490
C          1.99590        0.33450        1.30190
O          1.92720        1.28940        2.39340
C          1.13660        0.38760        3.19590
C          1.07540       -0.65710        2.06250
C         -0.20560       -0.78220        1.21010
N         -0.06520        0.04420       -0.01090
H         -0.19790        1.88410        1.21020
H         -0.39340        2.09390       -0.59760
H          1.80660        0.76840       -0.89840
H          3.03120        0.03920        1.10470
H          1.68230        0.06520        4.09120
H          0.17980        0.83030        3.50230
H          1.49840       -1.62980        2.31580
H         -0.34560       -1.81800        0.88590
H         -1.10580       -0.48900        1.76200
