14
gdb 5485	3.46115	2.0303	1.28997	1.4972	65.88	-0.2409	-0.0505	0.1904	886.469	0.108269	-378.785008	-378.77794	-378.776995	-378.816398	25.483
C         -0.02920        1.48990        0.01950
C         -0.01190       -0.00190       -0.02900
N         -0.03360       -0.71870       -1.11720
C         -0.00540       -2.04740       -0.70700
C          0.03380       -2.13780        0.64540
N          0.03000       -0.81990        1.10270
C          0.06260       -0.42530        2.43840
O          0.09810       -1.19390        3.36210
H          0.86470        1.89940        0.50260
H         -0.06290        1.85380       -1.00800
H         -0.90430        1.87730        0.55270
H         -0.01560       -2.85040       -1.42770
H          0.06360       -2.95780        1.34110
H          0.05200        0.67150        2.55070
