18
gdb 14386	3.65222	2.1528	1.85728	1.1553	70.43	-0.2418	0.0787	0.3205	795.4208	0.15387	-347.750862	-347.743839	-347.742895	-347.781361	28.827
C         -0.02620        1.56670        0.04500
C          0.07730        0.04770        0.01540
O         -1.22020       -0.53250        0.12630
C          0.78460       -0.66010       -1.13470
C          2.27660       -0.77300       -0.77830
C          2.48850       -0.13250        0.59420
C          1.08960       -0.70220        0.94600
C          1.27490       -1.75430       -0.22300
H          0.93450        2.05170       -0.14120
H         -0.73290        1.90010       -0.72130
H         -0.39570        1.91520        1.01840
H         -1.61140       -0.21010        0.94560
H          0.43740       -0.75000       -2.15640
H          3.01100       -0.94500       -1.55530
H          3.27970       -0.65070        1.14420
H          2.64460        0.94900        0.67480
H          0.80320       -0.91820        1.97480
H          1.19510       -2.82900       -0.27930
