16
gdb 11223	4.24245	1.40904	1.23159	3.714	71.41	-0.238	0.0001	0.2381	1008.0386	0.13158	-342.802506	-342.794746	-342.793802	-342.834766	28.226
C          0.03020        1.53370        0.04640
C          0.04180        0.04090        0.00150
C         -0.10160       -0.75060       -1.05920
C         -0.05380       -2.21040       -0.65830
N          0.42530       -2.15080        0.73110
C          0.21010       -0.79210        1.25000
C         -1.38460       -2.84870       -0.79490
N         -2.41830       -3.36220       -0.86930
H          0.97080        1.92270        0.45480
H         -0.11780        1.96560       -0.94620
H         -0.77070        1.89890        0.70110
H         -0.26380       -0.44170       -2.08340
H          0.64100       -2.79110       -1.28160
H          0.01490       -2.86940        1.31240
H          1.07210       -0.46840        1.85020
H         -0.67980       -0.69590        1.89610
