16
gdb 18217	4.40063	1.62977	1.34911	3.0169	70.27	-0.2408	-0.0246	0.2162	907.7903	0.131258	-346.606277	-346.599434	-346.59849	-346.637773	26.065
O          0.14880       -0.18920        0.04270
C          0.10360        1.00240        0.20720
C          1.30440        1.93190        0.11400
C          1.23990        2.83540       -1.11020
C          1.39570        4.12360       -0.79240
C          1.51320        4.32820        0.67770
C          0.28000        3.94040        1.46840
C          1.38820        2.93240        1.27350
H         -0.85620        1.51580        0.43900
H          2.18920        1.28500        0.07480
H          1.07980        2.44010       -2.10640
H          1.41430        4.94180       -1.50350
H          2.18830        5.07540        1.07910
H          0.17480        4.34640        2.46910
H         -0.65150        3.84010        0.92270
H          1.96010        2.64770        2.14790
