17
gdb 14707	10.90261	0.68933	0.65838	4.3592	69.6	-0.2623	-0.0238	0.2386	1660.5526	0.139863	-401.022647	-401.01341	-401.012466	-401.057494	30.978
C          0.29730        1.34540        0.07720
C         -0.14280       -0.05480       -0.36070
C          0.66280       -0.54380       -1.56940
N          0.37310       -1.85770       -2.12500
C         -0.50870       -2.59430       -1.62410
O         -0.81500       -3.84100       -2.11610
C          0.09070       -4.48440       -2.92360
O         -0.19540       -5.50430       -3.46740
H          1.35590        1.35850        0.35840
H          0.15920        2.07450       -0.72850
H         -0.28030        1.68960        0.93980
H         -0.02140       -0.75510        0.47560
H         -1.21210       -0.04180       -0.60730
H          0.55550        0.17380       -2.39400
H          1.73290       -0.53610       -1.32140
H         -1.16410       -2.38220       -0.77840
H          1.05490       -3.96280       -2.97220
