11
gdb 23820	3.96371	2.00549	1.3317	3.2725	56.98	-0.2444	-0.0541	0.1902	806.2812	0.073928	-434.87396	-434.867819	-434.866875	-434.904545	22.547
F          0.08040        0.08460        0.00250
C         -0.06500        1.39820        0.01150
N         -1.21960        1.92540        0.03010
C         -1.25950        3.33520        0.03870
N         -2.32730        4.03370        0.05680
C          0.04730        4.01490        0.02440
N          1.18570        3.41710        0.00580
N          1.12110        2.05020       -0.00060
H         -3.13950        3.41310        0.06440
H          0.06310        5.09900        0.02990
H          2.00090        1.56090       -0.01540
