14
gdb 13042	4.0838	1.45409	1.12878	3.9497	62.75	-0.2665	0.0039	0.2704	1000.1942	0.106092	-382.527548	-382.519909	-382.518965	-382.560187	27.135
O          0.04510        0.07400        0.26950
C          0.03350        1.22870       -0.00210
O         -1.02150        1.96850       -0.48470
C         -0.22790        3.19670       -0.49470
C          1.00040        2.42290        0.01980
C          1.57900        2.82400        1.38580
C          2.62540        1.92040        1.84560
C          3.49700        1.17740        2.20650
H         -0.16030        3.60850       -1.50330
H         -0.64940        3.93390        0.19340
H          1.80090        2.31460       -0.71540
H          1.98130        3.84230        1.30790
H          0.77070        2.86840        2.12690
H          4.25680        0.51140        2.53350
