11
gdb 895	7.05598	2.19625	1.67491	4.6832	47.88	-0.1833	0.0512	0.2345	666.7767	0.079218	-376.622507	-376.61597	-376.615026	-376.652743	23.522
O         -0.12050        1.35530        0.01120
C          0.07120        0.01760        0.00260
C          1.16480       -0.77220       -0.00800
N          0.68430       -2.09860       -0.01280
C         -0.69510       -2.14330       -0.00520
O         -1.43300       -3.10820       -0.00650
N         -1.05170       -0.78940        0.00440
H          0.73660        1.79350        0.00920
H          2.21230       -0.53130       -0.01260
H          1.24140       -2.93330       -0.02050
H         -2.00470       -0.47160        0.01150
