22
gdb 14173	3.4473	1.62839	1.61414	0.1494	81.35	-0.2512	0.0805	0.3317	973.943	0.201525	-313.080648	-313.072295	-313.07135	-313.112845	32.488
C          0.02190        1.57330        0.06470
C          0.06010        0.05620        0.03610
C         -1.25560       -0.54090       -0.44170
C          1.29530       -0.73100       -0.35770
C          2.67200       -0.07760       -0.37530
C          2.91980        0.49050        1.05020
C          1.84700       -0.14320        1.97950
C          0.79340       -0.77090        1.07470
H          0.95030        2.02930        0.40880
H         -0.18800        1.96960       -0.93620
H         -0.78070        1.92320        0.72530
H         -1.49930       -0.19870       -1.45490
H         -1.21860       -1.63460       -0.46020
H         -2.08380       -0.24670        0.21440
H          1.14360       -1.57670       -1.02200
H          3.41690       -0.84400       -0.61660
H          2.76800        0.69960       -1.14220
H          3.93140        0.26230        1.39830
H          2.84230        1.58060        1.05330
H          2.29190       -0.93350        2.59410
H          1.43030        0.59310        2.67630
H          0.27530       -1.64570        1.45640
