19
gdb 1149	5.79088	1.95367	1.95357	0.0002	72.52	-0.2901	0.0963	0.3864	782.4631	0.171694	-273.7519	-273.744793	-273.743848	-273.78222	28.159
C         -0.01450        1.47060        0.01600
C          0.00120       -0.03440       -0.00020
C          0.62190       -0.96410       -1.08730
C          0.02120       -1.93000       -0.02070
C          0.03730       -3.43500       -0.03710
C          0.63820       -0.98710        1.05700
C         -1.22670       -0.99540       -0.00140
H          1.00340        1.87640        0.01110
H         -0.53750        1.87010       -0.86020
H         -0.52160        1.85100        0.90980
H          0.14050       -0.95850       -2.07100
H          1.71310       -0.95160       -1.17860
H          1.06360       -3.81910       -0.05020
H         -0.46180       -3.84540        0.84790
H         -0.47700       -3.82630       -0.92210
H          1.73070       -0.97640        1.13240
H          0.17180       -1.00280        2.04780
H         -1.83840       -1.01170        0.90690
H         -1.85140       -0.99220       -0.90100
