18
gdb 18344	3.30725	2.05079	1.37424	1.9133	75.22	-0.2263	0.0124	0.2387	923.7167	0.154596	-347.77905	-347.771729	-347.770785	-347.810448	28.011
C         -0.04110        1.48220       -0.04890
C         -0.00560       -0.00320        0.10570
C         -1.00740       -0.85960        0.29080
C         -2.40100       -1.22120       -0.16050
O         -1.86640       -2.48830       -0.65600
C         -0.62500       -2.28970        0.11240
C          0.75490       -2.21450       -0.55920
C          1.28040       -0.82450       -0.06800
H          0.52350        1.98040        0.75000
H          0.42170        1.79200       -0.99460
H         -1.06430        1.86690       -0.02200
H         -3.14270       -1.39330        0.63110
H         -2.84740       -0.60940       -0.95240
H         -0.64320       -2.94520        0.99410
H          1.42400       -3.04450       -0.31530
H          0.61540       -2.18990       -1.64460
H          1.95460       -0.35520       -0.79360
H          1.85100       -0.91770        0.86630
