17
gdb 5087	3.24968	1.95672	1.24216	1.5625	71.88	-0.1768	0.0464	0.2232	971.8014	0.141646	-363.901287	-363.892609	-363.891665	-363.934296	31.301
C         -0.01640        1.50960       -0.01580
C          0.01560        0.01400        0.00270
C          0.00480       -0.81940       -1.06490
O          0.04300       -2.13140       -0.65140
C          0.07080       -2.10920        0.70160
N          0.18780       -3.35590        1.30950
C          0.05300       -0.83080        1.17930
C          0.07170       -0.38590        2.60870
H          0.87160        1.93930        0.46320
H         -0.05940        1.89100       -1.03980
H         -0.88790        1.90230        0.52200
H         -0.02980       -0.66820       -2.13040
H         -0.35750       -4.06620        0.83520
H         -0.05650       -3.32710        2.29030
H          1.04570        0.02070        2.91070
H         -0.67260        0.39660        2.79730
H         -0.15350       -1.21170        3.29290
