21
gdb 12097	3.28666	1.53774	1.46664	1.3034	78.64	-0.2176	0.086	0.3036	1008.6147	0.187985	-329.078862	-329.07016	-329.069216	-329.111731	33.315
C          0.11210        1.49990       -0.45970
N          0.06370        0.09400       -0.09020
C          1.29220       -0.68180       -0.18780
C          0.70800       -0.36550        1.14930
C          1.38290        0.53900        2.16000
C          2.77940        1.05790        1.86000
C          0.46880        1.42530        2.98680
C          1.09830        0.21020        3.61220
H          1.05640        2.01180       -0.22290
H         -0.05320        1.58060       -1.53920
H         -0.69780        2.03570        0.04490
H          1.20100       -1.67850       -0.61430
H          2.20400       -0.15760       -0.46980
H          0.12220       -1.15360        1.62100
H          2.81140        1.70290        0.97610
H          3.15550        1.64670        2.70320
H          3.47880        0.23150        1.69250
H          0.83580        2.40440        3.27650
H         -0.59470        1.39350        2.77640
H          0.46030       -0.64030        3.82860
H          1.90020        0.35540        4.32810
