18
gdb 14457	3.22612	2.37658	1.98252	1.2312	71.02	-0.2536	0.0806	0.3342	774.3151	0.156118	-347.774976	-347.768513	-347.767569	-347.805104	26.714
O         -0.05640        1.37200        0.04620
C          0.04130       -0.00940        0.03410
C          0.69210       -0.95710        1.07220
C          0.04350       -1.86900        0.00180
C         -1.20680       -0.93060       -0.03330
C         -1.77600       -0.89670       -1.45170
C         -0.45190       -0.89020       -2.27120
C          0.56270       -0.92700       -1.12890
H          0.83240        1.74180        0.01040
H          1.78560       -0.96390        1.12440
H          0.24620       -0.97370        2.07070
H          0.03590       -2.95710       -0.02060
H         -1.89350       -0.93990        0.81530
H         -2.40150       -1.76880       -1.66640
H         -2.38210       -0.00290       -1.62610
H         -0.36130       -1.75390       -2.93730
H         -0.34340        0.01090       -2.88290
H          1.63000       -0.92980       -1.36390
