15
gdb 21073	3.53071	2.03969	1.31262	1.9678	64.03	-0.2063	0.0406	0.247	895.492	0.120456	-395.991314	-395.983351	-395.982407	-396.024078	28.483
C          0.03020        1.43420       -0.05530
N         -0.00710       -0.00830        0.01160
N         -0.08320       -0.75650       -1.12890
C         -0.04880       -2.01770       -0.71260
C          0.05470       -2.11130        0.69480
N          0.11870       -3.18210        1.63340
C          0.08100       -0.79090        1.10480
O          0.17090       -0.28340        2.34710
H          1.02630        1.79330       -0.33550
H         -0.69080        1.77210       -0.80190
H         -0.23340        1.84020        0.92260
H         -0.10480       -2.81910       -1.43660
H          0.92870       -3.77480        1.48050
H         -0.69950       -3.78110        1.58440
H          0.19930       -1.05830        2.92980
