19
gdb 7977	3.26503	1.78153	1.30231	1.3529	72.46	-0.2373	0.0319	0.2692	1004.7005	0.165035	-365.102307	-365.093699	-365.092755	-365.135536	31.534
C         -0.43700        1.54210       -0.01120
C          0.08160        0.11580       -0.07600
O          1.15570        0.04280       -1.05140
C          2.12950       -0.72140       -0.48390
C          3.28740       -1.02300       -1.37340
N          1.98500       -1.10040        0.72030
C          0.72510       -0.50740        1.20700
C          1.01580        0.45130        2.36470
H          0.33820        2.23550        0.32440
H         -0.77860        1.86270       -0.99930
H         -1.28430        1.60910        0.67820
H         -0.71500       -0.54280       -0.44410
H          3.74600       -0.09320       -1.72470
H          4.02430       -1.61300       -0.82970
H          2.95380       -1.57420       -2.25820
H          0.08160       -1.31020        1.58390
H          1.67440        1.26720        2.05200
H          0.09530        0.88310        2.77010
H          1.52140       -0.09500        3.16500
