20
gdb 5938	4.26383	1.13292	1.12426	1.7133	76.51	-0.2587	0.0501	0.3088	1153.0022	0.173352	-348.974099	-348.964042	-348.963098	-349.008208	37.04
C         -0.05730        1.56970        0.08130
C         -0.00070        0.03330        0.06570
C          0.71120       -0.48840        1.32450
C         -1.42710       -0.53710        0.00300
O         -2.14590       -0.11240        1.15070
C          0.73260       -0.46540       -1.21310
C          2.11540       -0.01890       -1.32860
C          3.25580        0.35100       -1.42100
H          0.94990        1.99370        0.11530
H         -0.55450        1.95450       -0.81670
H         -0.61690        1.91970        0.95140
H          0.16840       -0.18260        2.22150
H          0.76630       -1.58330        1.32050
H          1.73210       -0.10110        1.38040
H         -1.91900       -0.18790       -0.92000
H         -1.37760       -1.63770       -0.04440
H         -3.03460       -0.47520        1.10190
H          0.71120       -1.56360       -1.23380
H          0.17620       -0.13070       -2.09930
H          4.26340        0.67390       -1.50880
