19
gdb 6765	5.9442	0.71372	0.69021	2.9941	70.01	-0.2416	0.0375	0.2791	1648.5075	0.163644	-402.231056	-402.220805	-402.219861	-402.268708	34.246
C         -0.16830        1.44570       -0.12690
C         -0.23060       -0.07410       -0.08240
O         -0.95780       -0.66770        0.69380
N          0.58070       -0.71270       -0.97880
C          0.60110       -2.15700       -1.12960
C          0.03820       -2.62060       -2.47700
C          0.06240       -4.13630       -2.62580
O         -0.42750       -4.45240       -3.91960
H          0.65010        1.83610       -0.73800
H         -1.11460        1.82610       -0.52320
H         -0.06670        1.82130        0.89350
H          1.12900       -0.15840       -1.61550
H          1.62860       -2.52410       -1.00360
H          0.00380       -2.54980       -0.30300
H         -0.99200       -2.26540       -2.58630
H          0.61630       -2.18330       -3.30120
H          1.09130       -4.50900       -2.48760
H         -0.55710       -4.59580       -1.83890
H         -0.45220       -5.40970       -4.00630
