14
gdb 16938	3.86647	2.20557	2.02939	3.9155	55.77	-0.2701	0.005	0.2751	705.5634	0.110194	-419.720723	-419.715121	-419.714176	-419.750398	22.223
O         -0.03570        0.01110       -0.00110
C          0.00570        1.20320       -0.01440
O         -1.11420        2.00350       -0.01800
C         -0.61940        3.36370        0.02320
C          0.61570        3.29560       -0.87770
C          1.19400        2.16630        0.00340
C          1.11980        2.86370        1.38620
O         -0.10780        3.62220        1.30700
H         -1.44070        4.04070       -0.19560
H          0.39170        2.99110       -1.90090
H          1.20030        4.21740       -0.86660
H          2.14640        1.70940       -0.25010
H          1.06450        2.16370        2.22450
H          1.96410        3.54540        1.53870
