18
gdb 7088	5.07471	0.78973	0.69506	3.3697	79.71	-0.2518	-0.0429	0.2089	1646.9415	0.150268	-347.80821	-347.797994	-347.79705	-347.8467	33.593
C          0.01600        1.57750       -0.05590
C          0.00160        0.04820        0.00140
C          0.68960       -0.59080       -1.20440
C          0.69070       -2.11150       -1.17480
O          0.19120       -2.75430       -0.27440
C          1.33490       -2.75270       -2.30580
C          1.87360       -3.27430       -3.25180
C          2.51890       -3.91750       -4.38340
H          1.03990        1.96760       -0.08050
H         -0.49920        1.94950       -0.94890
H         -0.48210        2.00890        0.81770
H          0.49080       -0.30070        0.91710
H         -1.02870       -0.31860        0.05960
H          0.21770       -0.27680       -2.14650
H          1.73450       -0.25940       -1.29020
H          2.47130       -5.00830       -4.30340
H          2.03930       -3.62490       -5.32390
H          3.57350       -3.62770       -4.44680
