17
gdb 10418	2.57655	1.99763	1.41363	4.6913	68.41	-0.2406	0.0221	0.2627	932.7727	0.143842	-360.024122	-360.016015	-360.015071	-360.05652	29.878
N         -0.10810        1.35360        0.36870
C         -0.12250       -0.06430        0.01890
C         -1.58050       -0.53770       -0.14550
C         -1.75530       -2.07950        0.00880
C         -2.23760       -1.76820        1.44850
N         -2.41860       -0.35000        1.05680
C         -2.14960        0.06960       -1.36010
N         -2.56240        0.55170       -2.32650
H          0.82790        1.64630        0.62670
H         -0.38170        1.91490       -0.43310
H          0.44210       -0.32770       -0.89100
H          0.31820       -0.62560        0.85040
H         -2.53970       -2.48170       -0.63190
H         -0.84650       -2.67140       -0.10870
H         -3.15910       -2.25830        1.77570
H         -1.46240       -1.94300        2.20590
H         -2.05000        0.36180        1.68060
