17
gdb 17971	2.77121	2.53818	1.53059	1.8529	65.24	-0.2524	0.0053	0.2576	840.9667	0.144274	-400.993101	-400.986103	-400.985159	-401.024122	26.744
C         -0.04460        1.51140        0.00340
C          1.32530        2.19830       -0.03110
O          2.00080        2.05990       -1.28380
C          2.98090        1.08030       -1.32970
O          2.48530       -0.21230       -0.99660
C          1.40020       -0.61430       -1.74360
N          0.21180       -0.59000       -1.33800
C         -0.04780       -0.02840       -0.00790
H         -0.54530        1.84610        0.92130
H         -0.64370        1.87860       -0.83730
H          1.18320        3.27490        0.11410
H          1.96340        1.83020        0.78440
H          3.37710        1.10030       -2.35310
H          3.78550        1.25160       -0.60210
H          1.64880       -0.99180       -2.73800
H          0.67470       -0.40160        0.72950
H         -1.04010       -0.37470        0.29500
