17
gdb 13509	3.27135	1.69014	1.39234	3.0497	64.76	-0.2319	-0.0117	0.2203	943.3952	0.140854	-400.985589	-400.977092	-400.976148	-401.019408	30.353
C          0.23630        1.58900       -0.26260
C         -0.00570        0.13460        0.09320
O         -0.08050       -0.25790        1.23300
C         -0.19400       -0.80050       -1.09330
N         -0.64560       -2.16720       -0.79670
C         -1.53320       -2.16810       -1.97930
C         -1.49880       -0.61850       -1.94860
O         -2.56340       -0.00100       -1.26860
H          1.00810        1.69360       -1.03240
H         -0.69350        2.00110       -0.67220
H          0.51820        2.14880        0.63000
H          0.69570       -0.73150       -1.74270
H          0.06440       -2.88730       -0.74110
H         -1.08620       -2.56940       -2.90080
H         -2.51200       -2.63500       -1.82270
H         -1.39660       -0.09950       -2.90170
H         -2.68250       -0.46570       -0.43040
