14
gdb 5157	5.19249	1.42315	1.35561	2.337	65.51	-0.2211	0.0155	0.2366	926.9385	0.108586	-378.742724	-378.735524	-378.73458	-378.775642	25.764
N         -0.04380        0.91270       -0.92840
C         -0.02030        0.01650       -0.02910
N         -1.16610       -0.49270        0.55320
C         -2.44010        0.01170        0.31060
C         -3.47240       -0.43430       -0.45210
C         -4.53650        0.50770       -0.28170
C         -4.06400        1.45380        0.57210
O         -2.79330        1.17000        0.94910
H          0.90130        1.12270       -1.24030
H          0.87790       -0.46780        0.37500
H         -1.03740       -1.09130        1.35380
H         -3.46420       -1.31990       -1.06690
H         -5.51370        0.48360       -0.73740
H         -4.48650        2.35240        0.99060
