10
gdb 23829	4.00315	2.00435	1.33561	3.8054	51.67	-0.2745	-0.0908	0.1837	787.5502	0.061819	-454.776823	-454.771024	-454.77008	-454.807087	21.164
F          0.02890        0.06900        0.00300
C         -0.03060        1.38860        0.01100
N         -1.18240        1.94460        0.02940
C         -1.22820        3.33770        0.03780
O         -2.23030        4.00520        0.05480
N          0.04230        3.96440        0.02440
N          1.22980        3.37750        0.00540
C          1.22610        2.07670       -0.00180
H          0.05020        4.97590        0.02990
H          2.17470        1.55730       -0.01720
