22
gdb 13132	3.97083	1.04575	0.90514	1.325	78.31	-0.2612	0.0815	0.3427	1339.7824	0.199949	-350.193431	-350.184105	-350.183161	-350.227638	34.281
C         -0.09960        1.57480       -0.09810
C          0.00160        0.05240       -0.03230
C          1.17600       -0.53200       -0.87410
C          2.01340       -0.66090        0.42570
C          0.69620       -0.53600        1.24430
C          0.68920        0.24110        2.55410
C          1.47230       -0.46070        3.65710
O          1.40770        0.34630        4.82440
H          0.86980        2.05680        0.06970
H         -0.45380        1.88900       -1.08610
H         -0.79920        1.96780        0.64710
H         -0.98140       -0.37940       -0.24600
H          0.93170       -1.50750       -1.30370
H          1.57550        0.10490       -1.66840
H          2.61030       -1.56730        0.55620
H          2.66780        0.20350        0.57930
H          0.29170       -1.54060        1.42250
H          1.11710        1.24030        2.41320
H         -0.34100        0.38750        2.90330
H          1.04230       -1.45970        3.83980
H          2.51580       -0.61130        3.33560
H          1.91470       -0.08660        5.51720
