17
gdb 19790	3.04946	2.6039	1.83239	3.0961	66.43	-0.2384	0.0692	0.3076	775.523	0.143735	-363.818946	-363.812337	-363.811393	-363.849394	26.4
C          0.08510        1.55510        0.02120
C          0.01860        0.02470       -0.00500
C          0.67220       -0.61320       -1.24080
N          2.10710       -0.32140       -1.41160
C          1.69270       -1.60740       -0.81160
C          1.71790       -1.60990        0.70580
O          2.11720       -0.37270        1.29800
C          0.71680       -0.64190        1.18530
H          1.12860        1.87630       -0.00060
H         -0.42890        1.98550       -0.84430
H         -0.38560        1.95630        0.92460
H         -1.03060       -0.30040        0.01560
H          0.06530       -0.76010       -2.12970
H          2.36260       -0.48070       -2.38390
H          1.87300       -2.53430       -1.34490
H          2.00030       -2.50930        1.24640
H          0.18970       -0.73900        2.13320
