15
gdb 7924	3.5404	1.79011	1.25402	1.9064	62.2	-0.2574	-0.0187	0.2387	928.6336	0.119934	-399.893404	-399.886064	-399.88512	-399.925547	26.874
C         -0.14950        1.56220        0.02260
C          0.06520        0.04740       -0.02010
C          0.89050       -0.48780       -1.20690
C          1.92660       -1.43280       -0.60180
O          2.71340       -2.14150       -1.17390
N          1.81390       -1.31310        0.78040
C          0.81490       -0.45320        1.22120
O          0.59380       -0.17630        2.37270
H          0.80530        2.09550       -0.03490
H         -0.77230        1.88980       -0.81440
H         -0.63940        1.84530        0.95700
H         -0.91360       -0.44700        0.00820
H          0.30450       -1.02000       -1.95910
H          1.42800        0.31210       -1.72770
H          2.42520       -1.80540        1.41690
