18
gdb 11956	3.52717	1.60689	1.3731	1.9584	68.5	-0.2261	0.073	0.299	976.0133	0.152145	-384.89694	-384.888632	-384.887688	-384.929604	31.083
C          0.14340        1.49700        0.10410
C         -0.11480       -0.00470       -0.08140
C          0.63230       -0.57410       -1.24460
C          2.07880       -1.01940       -1.27010
C          0.98110       -1.95680       -1.73440
O          0.72160       -3.18820       -1.16760
C          0.45480       -1.48790       -3.08720
O          0.25270       -0.14590       -2.56550
H          1.20170        1.69230        0.30460
H         -0.13510        2.04990       -0.79760
H         -0.44040        1.89300        0.94030
H          0.17570       -0.55710        0.81950
H         -1.18640       -0.18210       -0.23210
H          2.78080       -0.57410       -1.97080
H          2.48440       -1.27920       -0.29630
H          1.49980       -3.74550       -1.27810
H          1.13310       -1.50470       -3.94890
H         -0.50240       -1.95250       -3.35060
