13
gdb 4657	6.96612	1.27074	1.0747	2.1659	69.95	-0.1897	0.018	0.2077	1014.601	0.095435	-361.46573	-361.458352	-361.457408	-361.496947	28.068
O          0.10070        1.33490        0.18960
C          0.07160       -0.00700       -0.00070
C          0.09290       -0.80690       -1.11230
C          0.03790       -2.16720       -0.63750
C         -0.01380       -2.12010        0.74060
N          0.00740       -0.79570        1.11430
C          0.03710       -3.33400       -1.43570
C          0.03740       -4.31730       -2.13260
H          0.14240        1.76340       -0.67050
H          0.14110       -0.49130       -2.14200
H         -0.06300       -2.91170        1.46830
H         -0.01900       -0.44040        2.05430
H          0.03730       -5.18730       -2.74050
