13
gdb 609	6.88653	2.7336	2.31906	3.6028	51.56	-0.2505	0.0039	0.2544	574.3964	0.10755	-286.48657	-286.480311	-286.479366	-286.516357	21.744
C          0.30090        1.41560        0.11620
C         -0.01320       -0.04720       -0.09320
C          0.72520       -0.85360       -1.12700
N          0.94340       -1.07720        0.28250
C          2.15160       -0.89560        0.92750
O          3.22980       -1.20140        0.47850
H          1.34780        1.63370       -0.11730
H         -0.33000        2.03190       -0.53240
H          0.11020        1.72040        1.15030
H         -1.04800       -0.32510        0.10250
H          0.21450       -1.64780       -1.66430
H          1.52810       -0.36560       -1.67460
H          2.01190       -0.49970        1.95200
