16
gdb 4853	6.35795	1.27889	1.07745	0.409	68.51	-0.1704	0.0648	0.2352	1075.5384	0.13132	-379.938574	-379.93029	-379.929346	-379.971555	29.853
C          0.60220        0.76620       -0.31330
O         -0.69990        0.97400        0.20260
C         -1.56010       -0.04900       -0.00810
C         -1.45000       -1.27700       -0.61680
C         -2.74000       -1.89540       -0.51310
C         -3.57420       -1.03460        0.15400
N         -4.92020       -1.09700        0.58530
N         -2.83610        0.09850        0.45830
H          1.17860        1.66100       -0.07390
H          1.07510       -0.11040        0.14800
H          0.57800        0.62380       -1.40150
H         -0.57110       -1.68610       -1.08680
H         -3.01570       -2.86500       -0.89980
H         -5.57150       -0.84330       -0.15260
H         -5.15900       -2.03480        0.88550
H         -3.17260        0.87350        1.00320
