15
gdb 18564	3.83102	2.05697	1.66061	4.4706	60.66	-0.2354	0.0208	0.2561	787.0349	0.121248	-399.821742	-399.815302	-399.814358	-399.852467	24.602
O         -0.01610       -0.00940        0.03530
C         -0.00310        1.19010        0.01980
N         -1.00150        2.13870       -0.01410
C         -0.13200        3.31680        0.06770
C         -0.01390        3.98050        1.44380
C          0.89930        3.00640        2.21330
O          1.80510        2.48830        1.23620
C          1.08360        2.32660        0.04570
H         -2.00690        2.04650        0.01330
H         -0.24610        4.01420       -0.76440
H          0.47470        4.95380        1.33360
H         -0.97920        4.13400        1.93310
H          1.49340        3.48030        2.99700
H          0.31420        2.19240        2.66430
H          1.76910        2.33700       -0.80230
