15
gdb 12185	3.53904	1.51373	1.25716	2.5952	68.87	-0.2433	-0.0315	0.2118	990.5885	0.116601	-362.618756	-362.610589	-362.609645	-362.651567	29.607
C          0.17770        1.60210       -0.05520
C          0.06450        0.08880        0.04490
N          0.98490       -0.69640       -0.82540
C          1.40080       -1.61270        0.27710
C          2.81810       -1.87290        0.41920
C          3.99200       -2.08430        0.56630
C          0.71020       -0.60670        1.25340
O          0.72350       -0.43160        2.42970
H          1.22250        1.91230        0.02550
H         -0.21310        1.95620       -1.01390
H         -0.39590        2.07610        0.74730
H         -0.99050       -0.22170       -0.02870
H          0.53700       -1.17030       -1.60120
H          0.83930       -2.56070        0.30470
H          5.03070       -2.26640        0.69150
