20
gdb 17821	4.45159	1.2145	1.07349	1.7937	75.79	-0.2552	0.0841	0.3393	1170.8759	0.176867	-348.978295	-348.969967	-348.969023	-349.011681	30.818
C          0.06220        1.53610       -0.34330
C         -0.03860        0.07190        0.00190
O          1.16930       -0.69610       -0.01020
C          0.47650       -0.54640        1.23790
C          1.17750        0.18160        2.34710
C          0.35550        0.53960        3.62110
C          1.59230        0.16300        4.48030
C          2.14740       -0.62430        3.26300
H          0.89960        2.01860        0.16400
H          0.20550        1.65880       -1.42200
H         -0.86170        2.05670       -0.06820
H         -0.87780       -0.43920       -0.47660
H         -0.02330       -1.46300        1.56600
H          1.68610        1.06620        1.95640
H         -0.04160        1.55450        3.69990
H         -0.46840       -0.16650        3.77110
H          2.20560        1.03910        4.70980
H          1.41780       -0.38880        5.40670
H          1.86430       -1.68130        3.30290
H          3.21600       -0.55970        3.04750
