17
gdb 3165	5.46879	2.32227	1.92614	0.0532	68.79	-0.2324	0.032	0.2643	716.9603	0.149819	-272.582516	-272.576189	-272.575245	-272.613041	24.753
C          0.21440        1.53590        0.00820
C          1.32690        0.51510       -0.00780
C         -0.11340        0.06750        0.00350
C         -0.69480       -0.62730        1.24760
C         -1.39270       -1.83440        0.67140
C         -1.40530       -1.82730       -0.66020
C         -0.71840       -0.61410       -1.23660
H          0.04660        2.09490        0.92370
H          0.02920        2.10460       -0.89790
H          1.89390        0.39170       -0.92550
H          1.91120        0.38200        0.89760
H          0.08290       -0.89960        1.97320
H         -1.40440        0.01680        1.78770
H         -1.84450       -2.59650        1.29700
H         -1.86900       -2.58280       -1.28510
H         -1.43810        0.03570       -1.75630
H          0.04530       -0.87860       -1.97970
