21
gdb 10517	2.67422	1.45784	1.1006	0.8431	75.4	-0.2406	0.0747	0.3153	1180.5849	0.18746	-366.228342	-366.218759	-366.217815	-366.263308	34.157
C         -0.63110        0.86650        0.60110
C          0.25080       -0.33520        0.23590
C          0.55320       -0.45500       -1.24840
C          1.38850        0.65340       -1.85320
O          2.63160        0.69860       -1.18210
C          3.46960        1.72560       -1.65270
C          0.64270       -1.80760       -1.85250
N         -0.50220       -0.92830       -2.16500
H         -0.13510        1.81470        0.37340
H         -1.58080        0.84870        0.05540
H         -0.86040        0.86540        1.67100
H          1.20090       -0.27050        0.77700
H         -0.23840       -1.25980        0.56750
H          1.52360        0.46200       -2.92880
H          0.86860        1.62210       -1.76160
H          4.39500        1.68710       -1.07260
H          3.71350        1.59810       -2.71950
H          3.01080        2.71940       -1.52540
H          1.31800       -1.99040       -2.68400
H          0.47890       -2.66620       -1.20650
H         -1.31440       -1.22140       -1.62620
