17
gdb 2213	3.599	3.14612	2.23168	1.8333	63.45	-0.2382	0.0719	0.3101	672.7954	0.148765	-309.688639	-309.68199	-309.681046	-309.719025	25.334
C         -0.13610        1.53830        0.11410
C          0.03300        0.04050        0.01170
C         -1.22730       -0.86630        0.16930
C         -0.48920       -1.72270        1.24580
C          0.78210       -0.87430        1.03380
O          1.63510       -1.39970       -0.00400
C          1.05300       -0.52520       -0.99680
H          0.83180        2.04870        0.16670
H         -0.67320        1.93200       -0.75790
H         -0.71170        1.81530        1.00410
H         -2.09650       -0.33010        0.55880
H         -1.53230       -1.39510       -0.73790
H         -0.91870       -1.62100        2.24650
H         -0.35390       -2.78340        1.02410
H          1.35030       -0.53120        1.90390
H          0.64760       -1.07630       -1.85560
H          1.78620        0.20900       -1.35910
