20
gdb 9269	6.35011	0.77666	0.72552	1.4375	77.93	-0.2537	0.0598	0.3135	1574.8525	0.174133	-348.978776	-348.968793	-348.967849	-349.013744	35.974
C          0.03240        1.57870        0.09460
C         -0.00650        0.05180       -0.00190
C          0.69680       -0.49310       -1.25110
O          2.06210       -0.07580       -1.30830
C          0.57660       -2.01720       -1.36620
C          1.24000       -2.56460       -2.64530
C          1.19640       -4.01830       -2.73200
C          1.14770       -5.21880       -2.77730
H          1.06290        1.94120        0.05650
H         -0.51070        2.03870       -0.73830
H         -0.42400        1.92900        1.02510
H          0.46700       -0.39320        0.88600
H         -1.04510       -0.30160        0.00070
H          0.24270       -0.03390       -2.14020
H          2.50220       -0.41690       -0.52080
H          1.04140       -2.48630       -0.48850
H         -0.48050       -2.30530       -1.34750
H          0.74630       -2.12990       -3.52460
H          2.27750       -2.21440       -2.67920
H          1.11220       -6.27840       -2.83140
