17
gdb 16072	3.34231	1.74733	1.41941	1.9525	63.69	-0.2118	0.0527	0.2645	925.6085	0.141277	-400.92552	-400.917357	-400.916412	-400.958876	29.944
C         -0.44410        1.39940        0.11250
N          0.35920        0.19630       -0.08370
C          0.83520       -0.43410        1.09660
C          2.30550       -0.48660        1.51980
O          2.14160       -1.83550        2.05980
C          0.79360       -1.88370        1.57570
C         -0.00420       -0.85550        2.30730
O          0.29730       -0.51100        3.62150
H          0.15790        2.16260        0.61570
H         -0.73820        1.79710       -0.86300
H         -1.35420        1.24470        0.71450
H         -0.09830       -0.45730       -0.70490
H          2.98900       -0.49970        0.66560
H          2.64930        0.22250        2.28030
H          0.44500       -2.81250        1.13550
H         -1.07350       -0.86310        2.11170
H          1.09190       -1.01360        3.84920
