13
gdb 15278	4.96432	1.1539	1.01389	4.792	65.03	-0.2823	-0.0021	0.2802	1091.4261	0.093544	-361.414855	-361.407036	-361.406091	-361.447761	27.539
C         -0.08770       -1.20280        0.23860
C         -0.01790       -0.00570        0.15570
C          0.03720        1.42580        0.03240
O          0.69230        2.16290        1.08210
C          1.30580        2.15210       -0.19540
C          2.62570        1.41100       -0.31970
C          3.75640        2.22240        0.12900
N          4.64580        2.87420        0.47300
H         -0.15250       -2.26020        0.32180
H         -0.87750        1.89430       -0.32870
H          1.25530        3.09890       -0.73360
H          2.58200        0.48710        0.26390
H          2.78890        1.13080       -1.36730
