20
gdb 6437	3.43569	1.43747	1.22509	0.6528	81.34	-0.2522	0.0583	0.3105	1089.6158	0.175097	-311.836593	-311.827666	-311.826722	-311.869522	34.206
C          0.00810        1.63490        0.02920
C          0.04740        0.11550        0.01800
C          1.07090       -0.60280       -0.90170
C          1.32780       -1.65580        0.23540
C          2.78540       -2.04340        0.50270
C          0.67340       -0.62890        1.22780
C          0.49950       -2.84290        0.06630
C         -0.17900       -3.82680       -0.07280
H          1.00320        2.05380        0.22000
H         -0.34110        2.03160       -0.93080
H         -0.66540        2.01040        0.80790
H         -0.95420       -0.28290       -0.17390
H          0.72350       -0.98510       -1.86330
H          1.96660        0.00730       -1.06080
H          3.40000       -1.14630        0.62850
H          2.86880       -2.64850        1.41100
H          3.19350       -2.62720       -0.32840
H          1.44860       -0.02660        1.71360
H          0.00420       -1.03220        1.98990
H         -0.77840       -4.69450       -0.19560
