16
gdb 16565	3.29521	2.62966	2.12246	1.8724	63.39	-0.2424	0.0072	0.2495	711.402	0.133796	-383.748094	-383.742241	-383.741296	-383.777828	23.764
C          0.01270        1.56300       -0.01140
O          1.39540        1.91880       -0.10340
C          2.09590        0.70390        0.13920
O          1.32060       -0.28860       -0.49850
C          0.01930        0.00640        0.01820
C         -0.08530       -0.56160        1.44090
C          1.14430       -0.17330        2.22920
C          2.17440        0.42180        1.63010
H         -0.44180        1.98890        0.89090
H         -0.50280        1.95910       -0.89160
H          3.07200        0.76260       -0.34640
H         -0.72000       -0.43370       -0.65370
H         -0.99220       -0.18250        1.92990
H         -0.18830       -1.65500        1.40700
H          1.16240       -0.39810        3.29210
H          3.05790        0.74380        2.17110
