19
gdb 6781	7.56077	0.6789	0.63779	4.3099	69.82	-0.2455	0.034	0.2795	1728.9296	0.163204	-402.226159	-402.215887	-402.214943	-402.263222	34.179
C          0.02030        1.38990        0.04170
O          0.11170       -0.01280        0.05580
C          0.61400       -0.54390       -1.14960
C          0.66710       -2.05980       -1.02610
C          1.22300       -2.72620       -2.28500
C          1.10230       -4.24980       -2.23390
N          2.01270       -4.92060       -3.00120
O          0.25940       -4.82640       -1.57570
H          1.00360        1.86410       -0.11120
H         -0.65700        1.74940       -0.75000
H         -0.37440        1.70330        1.01130
H         -0.03060       -0.24950       -1.99790
H          1.61890       -0.13320       -1.35870
H          1.28110       -2.32440       -0.15860
H         -0.33430       -2.45030       -0.82830
H          0.66060       -2.39010       -3.16800
H          2.26670       -2.43630       -2.45900
H          2.66540       -4.44580       -3.59920
H          1.92150       -5.92010       -3.08120
