18
gdb 11676	3.36349	1.8112	1.49015	1.6772	68.4	-0.2475	0.0812	0.3287	914.0991	0.153391	-384.877068	-384.869255	-384.868311	-384.909123	29.713
C          0.02690        1.32120        0.04320
O          0.06860       -0.08930       -0.05230
C          0.70490       -0.56160       -1.17430
C          0.28740       -0.40060       -2.67380
C          1.54330       -1.31300       -2.67030
C          2.18960       -0.34500       -1.63660
C          0.88310       -2.06310       -1.46560
O          1.68430       -2.76610       -0.55450
H          1.03580        1.75580        0.07190
H         -0.52350        1.76960       -0.79620
H         -0.48950        1.56250        0.97470
H         -0.66120       -0.85480       -2.97410
H          0.42310        0.58840       -3.11540
H          2.02340       -1.75720       -3.53930
H          2.44850        0.64880       -2.00990
H          2.96120       -0.76380       -0.99250
H         -0.04180       -2.60700       -1.70070
H          1.86810       -3.63480       -0.92450
