17
gdb 1676	4.25707	1.80855	1.37554	2.8471	61.16	-0.2643	-0.0256	0.2387	903.554	0.145654	-346.883119	-346.874529	-346.873585	-346.916229	30.144
C          0.01670        1.55740        0.04780
C         -0.04450        0.03430        0.18060
C         -1.46300       -0.50870       -0.08520
O         -1.91670       -0.12100       -1.35400
C         -1.52180       -2.03360        0.03640
C         -1.12950       -2.67760        1.34600
O         -1.88100       -2.68450       -0.92320
H          1.03700        1.92270        0.19820
H         -0.31980        1.86520       -0.94480
H         -0.62770        2.04340        0.78890
H          0.64150       -0.43160       -0.53780
H          0.27910       -0.26880        1.18360
H         -2.13560       -0.10150        0.69230
H         -2.11260       -0.95390       -1.81480
H         -1.49170       -2.10050        2.20180
H         -1.51620       -3.69690        1.38430
H         -0.03650       -2.71620        1.42000
