12
gdb 17156	4.34538	2.01158	1.62339	4.0544	59.31	-0.2675	-0.0119	0.2556	751.1512	0.084247	-377.404679	-377.398826	-377.397881	-377.4347	22.442
N         -0.02170       -1.10320        0.03290
C         -0.03100        0.05280        0.05290
C         -0.05110        1.48950        0.05160
N         -0.69530        2.33140        1.10900
C         -0.15480        3.34780        0.14970
C          1.13120        2.51140       -0.11670
O          1.03260        2.58480       -1.56010
C         -0.35080        2.48380       -1.14250
H         -1.71380        2.27050        1.03660
H         -0.25360        4.42320        0.28140
H          2.10640        2.52070        0.36440
H         -1.13910        2.45870       -1.89490
