15
gdb 14486	4.97223	1.79769	1.74772	0.8248	63.97	-0.2086	0.064	0.2726	795.2689	0.117634	-362.535608	-362.528888	-362.527944	-362.565953	26.664
C         -0.00440        1.49800        0.02190
C         -0.06510        0.01200       -0.07050
C          0.51080       -1.00470       -1.09610
C          0.81910       -1.91600        0.08040
N          0.26760       -0.90620        1.08140
C         -1.07440       -0.98360        0.39000
C         -0.51080       -2.03130       -0.62370
O         -1.08010       -3.01410       -1.38150
H          1.03140        1.85310       -0.01680
H         -0.55830        1.96780       -0.79830
H         -0.44200        1.83060        0.96840
H          0.98040       -0.91320       -2.06510
H          1.63210       -2.60500        0.27340
H         -2.00840       -0.87110        0.93040
H         -1.26340       -3.77290       -0.81470
