18
gdb 19483	4.44367	1.47395	1.41553	2.2923	67.39	-0.2351	0.0717	0.3068	942.1214	0.155408	-384.903149	-384.896026	-384.895082	-384.934651	27.643
O          0.40230       -0.07400       -1.41890
C          0.00250        0.09430       -0.06310
C         -1.37900       -0.51320        0.07300
C         -1.50000       -2.07580       -0.01320
C         -1.11130       -2.11390        1.50020
C         -1.94770       -0.81250        1.49000
O         -3.27420       -1.28290        1.19790
C         -3.02170       -2.20990        0.11050
H          1.25340        0.35810       -1.53670
H          0.72700       -0.37380        0.61860
H         -0.04870        1.16240        0.20390
H         -2.06950        0.03940       -0.57210
H         -0.99050       -2.65970       -0.77740
H         -1.49510       -2.93610        2.10890
H         -0.04760       -1.96860        1.68360
H         -1.98700       -0.09190        2.30620
H         -3.56390       -1.89090       -0.78720
H         -3.35410       -3.21610        0.39160
