12
gdb 4325	4.26002	1.90746	1.31753	3.1533	61.66	-0.2249	-0.0494	0.1755	838.6952	0.085659	-414.701504	-414.695267	-414.694323	-414.731915	23.728
O          0.02850        1.32920        0.00820
C         -0.02570       -0.00930        0.00100
C         -1.20250       -0.67790        0.00370
C         -1.20280       -2.11470       -0.00440
N         -2.21660       -2.87030       -0.00300
O          0.10390       -2.69500       -0.01490
C          1.18320       -1.91560       -0.01640
N          1.21170       -0.63710       -0.00940
H          0.96490        1.56980        0.00430
H         -2.15460       -0.16790        0.01190
H         -1.94890       -3.85320       -0.01000
H          2.10100       -2.49680       -0.02490
