16
gdb 12469	3.36283	1.95693	1.31263	3.4684	68.68	-0.2375	-0.0549	0.1826	909.2877	0.131754	-383.757092	-383.750028	-383.749084	-383.788726	26.476
O         -0.04330        0.96290        1.55340
C         -0.03800        1.46830        0.44650
C         -1.39910        1.79180       -0.18320
O         -1.43480        2.17520       -1.53340
C         -0.77960        3.39640       -1.81410
C          0.65170        3.16390       -2.28570
C          1.54530        2.42100       -1.33970
C          1.25440        1.73160       -0.22750
H         -2.00550        0.88560       -0.09560
H         -1.86740        2.55410        0.46190
H         -1.34870        3.89530       -2.60640
H         -0.79050        4.05390       -0.93150
H          0.62890        2.61100       -3.23630
H          1.11510        4.13160       -2.52440
H          2.59840        2.45560       -1.61730
H          2.07470        1.28680        0.33070
