15
gdb 14084	3.81018	1.68226	1.41954	4.9153	62.51	-0.2525	-0.0031	0.2494	898.7029	0.118414	-399.783864	-399.776532	-399.775587	-399.81549	26.741
C         -0.13080        1.43450       -0.10370
N          0.07990       -0.00570       -0.01820
C          1.44280       -0.49390       -0.16380
C          0.75790       -0.50540        1.15680
C          1.13580        0.17210        2.47500
O          0.69910       -1.02840        3.18660
C          0.31270       -1.66600        2.02130
O         -0.16440       -2.74520        1.90290
H          0.70660        2.02900        0.29700
H         -0.27170        1.70440       -1.15390
H         -1.04050        1.70000        0.44270
H          1.56200       -1.41930       -0.71970
H          2.24450        0.23520       -0.28380
H          2.19660        0.36310        2.64970
H          0.53380        1.03690        2.76480
