19
gdb 13193	4.86022	1.23968	1.01942	3.8042	73.74	-0.2319	0.0365	0.2685	1181.5862	0.164996	-365.086439	-365.077345	-365.0764	-365.122247	30.921
C         -0.20160        1.50830        0.05370
C          0.04390        0.00120        0.04100
C          0.79750       -0.47300        1.28230
O          1.22200        0.28130        2.14310
N          0.96890       -1.81660        1.37280
C          0.69150       -2.95880        0.49940
C          1.43430       -3.86170        1.52730
C          1.70930       -2.58290        2.37330
H          0.74260        2.05260        0.12710
H         -0.71950        1.82320       -0.85680
H         -0.80750        1.79640        0.91630
H         -0.90240       -0.55050       -0.03160
H          0.62210       -0.29050       -0.84650
H         -0.37480       -3.17540        0.36360
H          1.16110       -2.89390       -0.48970
H          0.80100       -4.60230        2.01620
H          2.32530       -4.35530        1.13890
H          2.75980       -2.28640        2.46130
H          1.25770       -2.56090        3.37030
