17
gdb 9310	6.28632	0.78485	0.70987	3.7555	70.75	-0.2952	-0.084	0.2112	1545.7867	0.13989	-363.894458	-363.885156	-363.884211	-363.929494	31.545
C          0.08430        1.54370        0.00910
C          0.00410        0.01500        0.00210
C         -1.43830       -0.50230        0.01300
C         -1.51380       -2.02860        0.00590
C         -2.92480       -2.56550        0.01660
O         -3.92870       -1.89980        0.02980
C         -3.01990       -4.04580        0.00950
N         -3.07870       -5.20070        0.00410
H          1.12330        1.88620        0.00110
H         -0.41490        1.97010       -0.86770
H         -0.39820        1.96110        0.89960
H          0.52490       -0.37640       -0.88190
H          0.54150       -0.38540        0.87200
H         -1.96720       -0.12090        0.89410
H         -1.98370       -0.11200       -0.85390
H         -1.00730       -2.45710       -0.87150
H         -0.99080       -2.46590        0.86930
