14
gdb 5155	5.41924	1.31188	1.2468	3.2316	67.91	-0.2207	0.0069	0.2276	969.223	0.109062	-341.622653	-341.615678	-341.614734	-341.65489	25.277
N         -0.04430       -1.17190       -0.00610
C         -0.01330       -0.01750        0.00110
C          0.01370        1.45580        0.01040
N          1.34690        2.01020        0.00050
C          2.11560        2.25520        1.11740
C          3.34700        2.69160        0.69660
C          3.33170        2.70290       -0.72750
C          2.09140        2.27300       -1.12860
H         -0.53770        1.82070       -0.86180
H         -0.52000        1.80920        0.89830
H          1.71280        2.09650        2.10520
H          4.16470        2.98280        1.33730
H          4.13550        3.00440       -1.38100
H          1.66750        2.12990       -2.10990
