13
gdb 15290	4.90823	1.20994	1.05185	2.7999	63.84	-0.2855	-0.0186	0.2669	1047.5762	0.095467	-357.627521	-357.619971	-357.619027	-357.660097	26.226
N          0.08980       -1.09390       -0.51960
C          0.06920       -0.02310       -0.08850
C          0.02400        1.34120        0.44320
N          1.32060        1.99350        0.24920
C          1.54710        2.65550       -1.02320
C          1.34300        3.46430        0.22530
C          0.12450        4.22320        0.37040
N         -0.85480        4.82210        0.51330
H         -0.81490        1.87410       -0.03110
H         -0.18510        1.29910        1.51730
H          2.54700        2.56230       -1.43440
H          0.73920        2.66980       -1.75170
H          2.20040        3.90310        0.72680
