13
gdb 10371	2.41245	2.22763	1.395	3.1185	63.97	-0.2785	-0.0043	0.2741	877.3078	0.09411	-361.406121	-361.398401	-361.397457	-361.439111	27.013
C         -0.06590       -1.24220       -0.09720
C         -0.05300       -0.04220       -0.05920
C         -0.00940        1.40770        0.01720
C         -0.10940        2.02220        1.46090
O          1.21360        2.56490        1.37980
C          1.42500        2.04990        0.06020
C         -0.90900        2.02500       -0.95610
N         -1.61210        2.53860       -1.71560
H         -0.08540       -2.30370       -0.13950
H         -0.87700        2.79460        1.57100
H         -0.21140        1.26810        2.24700
H          2.23180        1.31220        0.01660
H          1.58910        2.83910       -0.68020
