18
gdb 14976	4.37993	1.54863	1.20846	1.4468	70.01	-0.2454	0.0218	0.2672	1009.921	0.154161	-384.940499	-384.932705	-384.931761	-384.97268	28.871
C          0.02080        1.38000       -0.00930
O          0.08240       -0.03630       -0.02020
C          0.70570       -0.58550        1.08750
C          0.55350       -2.10170        1.03840
C          1.48390       -2.74400        2.03400
C          2.48870       -2.07010        2.58780
C          2.78310       -0.64320        2.21440
O          2.08010       -0.22460        1.05920
H          1.02020        1.82610       -0.04460
H         -0.54350        1.67810       -0.89530
H         -0.50070        1.74750        0.88750
H          0.26010       -0.18590        2.02230
H         -0.48810       -2.37080        1.24850
H          0.76600       -2.43790        0.01570
H          1.30010       -3.78090        2.30110
H          3.13690       -2.52590        3.33130
H          2.56320        0.02440        3.06880
H          3.84730       -0.51570        1.98360
