15
gdb 8770	3.61138	1.22154	1.14929	2.1457	62.01	-0.264	-0.0432	0.2208	1060.2191	0.116007	-399.811677	-399.802617	-399.801672	-399.846166	30.837
C         -0.05610        1.52290        0.12250
C          0.00650       -0.01030        0.00130
C         -1.40740       -0.57620        0.03070
O         -1.90020       -1.09250        0.99910
C          0.72620       -0.47010       -1.29470
O          0.11370        0.01050       -2.47690
C          2.15610       -0.10530       -1.24460
N          3.26370        0.22230       -1.20500
H          0.94730        1.95700        0.07380
H         -0.66720        1.96360       -0.67260
H         -0.50410        1.80620        1.07770
H          0.54100       -0.42610        0.86130
H         -1.97460       -0.45340       -0.91710
H          0.66700       -1.56230       -1.36410
H          0.29520        0.95370       -2.55790
