18
gdb 18129	3.72005	2.10238	1.59088	1.645	65.79	-0.2496	0.0759	0.3254	835.7134	0.157178	-384.957923	-384.951392	-384.950448	-384.98885	25.567
C          0.04590        1.50880        0.09950
C          1.50000        1.97880       -0.08490
C          2.13680        0.90380       -0.99080
O          3.45570        0.51050       -0.62430
C          3.30810       -0.63520        0.18070
O          2.21820       -1.36160       -0.33590
C          1.28130       -0.39030       -0.79150
C          0.17880       -0.01980        0.22290
H         -0.44760        1.96760        0.96050
H         -0.54870        1.76540       -0.78620
H          1.58610        2.98560       -0.50050
H          2.02300        1.97750        0.87840
H          2.17720        1.22620       -2.03430
H          4.21370       -1.24440        0.11250
H          3.12530       -0.35210        1.23460
H          0.86030       -0.76600       -1.72750
H          0.52430       -0.28960        1.22750
H         -0.75590       -0.55710        0.04510
