15
gdb 81	7.57282	3.5255	2.65861	1.3149	49.26	-0.2629	0.0789	0.3418	516.4357	0.136209	-233.551389	-233.544542	-233.543598	-233.581067	23.924
C          0.00120        1.54940        0.01950
C         -0.00080        0.01700       -0.03370
C         -1.42460       -0.55000        0.00670
C          0.74150       -0.49460       -1.26830
O          2.09150       -0.05690       -1.19970
H          1.02080        1.93720       -0.03490
H         -0.56590        1.96840       -0.82120
H         -0.46010        1.91190        0.94390
H          0.54970       -0.35810        0.83980
H         -2.00690       -0.21650       -0.86080
H         -1.42440       -1.64540        0.00790
H         -1.95300       -0.21510        0.90470
H          0.68570       -1.59490       -1.30220
H          0.24550       -0.11290       -2.17710
H          2.53790       -0.32810       -2.00660
