18
gdb 15579	2.53785	2.1368	1.46275	1.6959	72.44	-0.2515	0.0398	0.2913	927.4742	0.153356	-347.777354	-347.769065	-347.768121	-347.810405	30.534
C         -0.31140        1.54320       -0.09120
C         -0.00970        0.04990       -0.02830
C          0.94470       -0.48230       -1.11170
C          1.47430       -1.79350       -0.50040
O          1.16540       -1.75910        0.90130
C          0.70220       -0.45820        1.25010
C          1.80490        0.40770        1.69080
C          2.71540        1.10620        2.05020
H          0.60660        2.13290       -0.01580
H         -0.80510        1.79710       -1.03450
H         -0.97580        1.84990        0.72350
H         -0.94930       -0.51340       -0.08340
H          0.44730       -0.63760       -2.07210
H          1.76040        0.23110       -1.26820
H          0.98400       -2.67840       -0.92200
H          2.55630       -1.90580       -0.63980
H         -0.00220       -0.58420        2.08010
H          3.52070        1.71590        2.37880
