20
gdb 12647	3.26465	1.7469	1.28391	1.4049	76.84	-0.2393	0.0204	0.2597	1018.5179	0.176857	-349.027791	-349.019116	-349.018172	-349.06052	32.795
C         -0.76650        1.21960        0.04030
C          0.13480       -0.01220        0.03780
C          1.17760       -0.06890       -1.10940
C          2.34370       -0.78650       -0.47620
C          2.22450       -0.91150        0.84890
C          3.18900       -1.52860        1.81190
C          0.96750       -0.21470        1.33710
O          1.29400        0.99100        2.03810
H         -0.18430        2.13670        0.17080
H         -1.31900        1.29950       -0.90180
H         -1.49460        1.17900        0.85660
H         -0.49290       -0.90690       -0.05840
H          0.78840       -0.58770       -1.99330
H          1.46720        0.93510       -1.45420
H          3.19270       -1.14300       -1.05240
H          4.10140       -1.86930        1.31480
H          3.46410       -0.81010        2.59250
H          2.73940       -2.38860        2.32480
H          0.41010       -0.80040        2.07660
H          1.92970        1.47240        1.49660
