20
gdb 8937	3.66694	1.16518	0.96406	2.264	72.34	-0.2691	-0.0381	0.231	1247.8276	0.174275	-386.156619	-386.146886	-386.145942	-386.191478	34.796
C         -0.11210        1.59020        0.00160
C          0.02310        0.06470       -0.02640
C          0.79050       -0.48270       -1.24590
C          2.28130       -0.11490       -1.20100
C          0.57320       -2.02040       -1.33360
O         -0.79130       -2.34570       -1.32650
C          1.22370       -2.62580       -2.56270
O          0.57320       -3.21390       -3.39500
H          0.85550        2.09710        0.07200
H         -0.61510        1.95760       -0.90000
H         -0.70750        1.90720        0.86340
H          0.52320       -0.28110        0.88950
H         -0.97350       -0.38400       -0.02540
H          0.34030       -0.05080       -2.15080
H          2.80830       -0.37040       -2.12480
H          2.41040        0.95960       -1.04960
H          2.78720       -0.62560       -0.37260
H          1.07580       -2.47570       -0.45870
H         -0.94730       -2.82800       -2.15430
H          2.31990       -2.51710       -2.66380
