19
gdb 1343	4.06782	2.27195	2.16866	0.1035	71.52	-0.2344	0.0313	0.2657	746.4522	0.171964	-273.806349	-273.799098	-273.798154	-273.837017	28.498
C         -0.35400        1.60320       -0.00670
C          0.07750        0.13260        0.00860
C         -1.16050       -0.77740       -0.06920
C          1.04440       -0.21420       -1.16970
C          2.05880       -1.14340       -0.55200
C          1.98170       -1.15220        0.77740
C          0.90210       -0.23040        1.28600
H          0.51230        2.27140        0.04790
H         -0.90550        1.84510       -0.92250
H         -1.00770        1.83350        0.84240
H         -1.72840       -0.59230       -0.98780
H         -0.86980       -1.83320       -0.05930
H         -1.83090       -0.60400        0.78010
H          0.50990       -0.66470       -2.01550
H          1.53510        0.68660       -1.56590
H          2.77580       -1.70370       -1.14250
H          2.62620       -1.72080        1.43940
H          1.34310        0.66470        1.74810
H          0.27380       -0.69160        2.05840
