12
gdb 1420	6.83202	1.37856	1.2231	1.3957	51.86	-0.2734	-0.0442	0.2293	895.0568	0.087782	-360.52294	-360.515346	-360.514402	-360.555317	25.28
O         -0.11570        1.45540        0.10380
C          0.02790        0.05130        0.02980
C          0.73950       -0.39370       -1.25960
C          0.01140        0.13690       -2.48310
O          0.55620        0.65680       -3.41800
C          0.71190       -0.49350        1.21970
N          1.27340       -0.90300        2.14260
H          0.76210        1.85520        0.12910
H         -0.99700       -0.33870        0.02870
H          1.77770       -0.04960       -1.28020
H          0.74680       -1.49100       -1.30870
H         -1.09270       -0.01030       -2.46140
