15
gdb 1505	7.86064	1.27549	1.11564	3.8249	61.31	-0.2373	-0.0671	0.1702	1025.2984	0.123944	-341.84973	-341.841583	-341.840639	-341.882735	27.725
C          0.06240        1.53010        0.00320
C         -0.09000        0.01420       -0.04780
N          0.64220       -0.54560       -1.17250
C          0.81310       -1.89400       -1.31090
N          0.46660       -2.74000       -0.41600
C          1.48950       -2.29430       -2.60460
O          1.73700       -3.43720       -2.88340
H          1.11310        1.81770        0.10600
H         -0.33460        2.00340       -0.90270
H         -0.48950        1.93710        0.85450
H          0.30170       -0.45280        0.86070
H         -1.15180       -0.26830       -0.10080
H          0.70850        0.01920       -2.00500
H          0.74860       -3.67000       -0.73200
H          1.75050       -1.45970       -3.29590
