19
gdb 12541	3.34827	1.84586	1.26998	2.3449	73.19	-0.2378	0.022	0.2598	984.549	0.166876	-365.078498	-365.070653	-365.069709	-365.1108	29.547
C         -0.09450        1.54970        0.01260
C         -0.03380        0.02840       -0.04840
C          0.82420       -0.48410       -1.20250
C          0.71020       -1.99240       -1.41760
C          1.36620       -2.82680       -0.31350
N          0.83870       -2.74240        1.03670
C          0.50070       -1.68650        1.63400
O          0.42990       -0.38020        1.25350
H          0.91100        1.96960        0.11530
H         -0.54670        1.95030       -0.89910
H         -0.69010        1.87330        0.86950
H         -1.05100       -0.37420       -0.16930
H          0.49980        0.04040       -2.10930
H          1.86970       -0.19740       -1.02700
H         -0.34810       -2.27200       -1.50620
H          1.18500       -2.26530       -2.36780
H          1.33090       -3.88260       -0.60450
H          2.43460       -2.56430       -0.26440
H          0.24600       -1.74860        2.69390
