16
gdb 12943	2.67738	2.18464	1.68625	1.5766	66.31	-0.241	0.0188	0.2598	847.8048	0.1306	-379.888224	-379.88052	-379.879576	-379.919862	29.174
C          0.00970        1.56030        0.01550
C          0.09260        0.05210        0.07480
C          1.33830       -0.73530       -0.13620
O          2.48030       -0.00830        0.39640
C          1.95580       -0.11190        1.68620
N          2.46660        0.16390        2.79710
C          0.67890       -0.76400        1.23930
N         -0.08410       -1.76100        1.89330
H          0.94720        2.02120        0.33300
H         -0.19700        1.88960       -1.00810
H         -0.79360        1.93470        0.65770
H         -0.78000       -0.47590       -0.30710
H          1.54170       -1.51080       -0.86160
H          3.40770        0.54670        2.69060
H          0.51400       -2.36490        2.44890
H         -0.75900       -1.34340        2.52650
