16
gdb 20785	4.87602	1.80169	1.4233	3.1029	71.41	-0.2336	0.0329	0.2665	879.	0.1332	-342.773603	-342.766863	-342.765919	-342.804686	25.321
C         -0.17680        1.58630        0.03410
C          0.02700        0.07620        0.01930
C          0.77910       -0.52880       -1.24490
N          1.79190       -0.97500       -0.28200
N          2.93380       -1.64480       -0.08850
C          3.06090       -1.56060        1.24840
C          2.00430       -0.85280        1.88760
C          1.20020       -0.49550        0.82010
H          0.75930        2.11230       -0.17780
H         -0.91910        1.88770       -0.71220
H         -0.53360        1.91740        1.01420
H         -0.91870       -0.44010        0.21130
H          0.26540       -1.34330       -1.76220
H          1.14470        0.20640       -1.96740
H          3.92000       -2.01510        1.72110
H          1.88570       -0.65990        2.94040
