22
gdb 7197	5.73205	0.71417	0.66415	0.2259	75.47	-0.258	0.0707	0.3287	1734.4584	0.197972	-387.341796	-387.331189	-387.330245	-387.377884	37.296
C         -0.00240        1.58440        0.07470
C          0.00130        0.05440        0.03230
C         -1.40580       -0.54850       -0.03010
C         -1.41840       -2.08170       -0.00950
O         -0.76440       -2.59550        1.15460
C         -2.83300       -2.65210       -0.15140
C         -2.86400       -4.17420       -0.20080
O         -4.22270       -4.57710       -0.30730
H          1.01550        1.98440        0.11740
H         -0.48870        2.00730       -0.81180
H         -0.54210        1.95610        0.95320
H          0.57620       -0.28790       -0.83850
H          0.51760       -0.34650        0.91100
H         -2.00510       -0.18090        0.81740
H         -1.92120       -0.20210       -0.93580
H         -0.80090       -2.44890       -0.84080
H         -1.26500       -2.29430        1.92200
H         -3.45330       -2.31370        0.69050
H         -3.30130       -2.25670       -1.06050
H         -2.27480       -4.52720       -1.06360
H         -2.38990       -4.57940        0.70380
H         -4.25100       -5.53800       -0.28930
