16
gdb 15770	4.69349	1.04065	0.94029	1.5828	69.56	-0.2518	0.0392	0.291	1259.7308	0.128217	-383.68502	-383.67605	-383.675106	-383.720941	30.722
C         -0.05550        1.44270       -0.09470
C         -0.02180       -0.01110       -0.03660
C          0.00100       -1.21370        0.02130
C          0.02540       -2.68190        0.05860
O         -1.27220       -3.24920        0.09680
C          0.81030       -3.23000       -1.13600
C          0.56650       -4.58450       -1.63660
O          0.02220       -3.43490       -2.30890
H          0.95690        1.86010       -0.12590
H         -0.58520        1.79210       -0.98760
H         -0.56190        1.86430        0.78040
H          0.52350       -3.01230        0.97930
H         -1.63360       -3.12610       -0.79220
H          1.77790       -2.76090       -1.31030
H          1.35170       -5.10560       -2.18060
H         -0.16720       -5.20820       -1.13310
