17
gdb 20057	5.42153	1.37111	1.17126	1.5046	68.63	-0.2466	0.0236	0.2702	1018.2288	0.144056	-363.860788	-363.853603	-363.852659	-363.893038	26.457
C         -0.16910        1.35110       -0.20030
C          1.26500        0.98490        0.08980
C          0.20970       -0.08570        0.07360
C         -0.22510       -0.74550        1.36150
C         -1.63660       -1.39850        1.28720
O         -1.41190       -2.78410        1.64390
C         -0.07670       -2.88530        1.84740
N          0.66770       -1.86800        1.73310
H         -0.72040        1.88680        0.56620
H         -0.43950        1.62790       -1.21300
H          1.97970        1.01160       -0.72470
H          1.67920        1.26780        1.05170
H          0.21500       -0.75810       -0.78080
H         -0.18300        0.00230        2.16360
H         -2.35500       -0.97730        1.99440
H         -2.06560       -1.36880        0.28110
H          0.25730       -3.88420        2.10710
