16
gdb 8042	3.49534	1.93122	1.52613	3.4739	60.42	-0.241	0.0513	0.2923	845.2374	0.129274	-420.823795	-420.816109	-420.815164	-420.855752	28.727
O         -0.18930        1.48810        0.19740
C         -0.01940        0.10610        0.05420
C          0.39830       -0.75630        1.29490
C         -0.81410       -1.69810        1.01670
O         -0.56740       -3.03620        0.71930
C         -2.08210       -1.30150        1.79300
O         -2.35840       -0.24560        0.84240
C         -1.32950       -0.69510       -0.05900
H          0.68010        1.89990        0.22010
H          0.62220       -0.14430       -0.80460
H          1.37290       -1.24230        1.20430
H          0.33860       -0.21900        2.24460
H         -0.04370       -3.41630        1.43300
H         -2.85620       -2.08010        1.76890
H         -1.96340       -0.92280        2.81560
H         -1.71610       -0.95550       -1.04730
