18
gdb 10500	2.89118	1.32846	1.01777	1.962	77.34	-0.2445	0.0346	0.2792	1219.0686	0.150903	-347.765611	-347.756091	-347.755147	-347.801551	32.859
C         -0.35710        1.39830        0.04270
C          0.23180       -0.01410        0.11080
C          0.81710       -0.46950       -1.21640
C          0.64350       -1.86860       -1.65950
O         -0.16720       -0.83650       -2.21000
C          1.94600        0.28580       -1.71110
C          2.88860        0.93260       -2.09110
C          4.02500        1.70750       -2.56640
H          0.40930        2.12980       -0.22980
H         -1.15260        1.44620       -0.70670
H         -0.77900        1.69030        1.00880
H          1.01860       -0.06120        0.87320
H         -0.54460       -0.73050        0.39990
H          1.37220       -2.30690       -2.33920
H          0.13270       -2.57140       -1.00120
H          4.83440        1.05680       -2.91510
H          3.73770        2.35750       -3.40020
H          4.42900        2.34530       -1.77270
