21
gdb 10069	3.10098	1.18824	0.98109	4.0674	78.59	-0.3118	0.0363	0.348	1263.7282	0.187789	-329.157748	-329.147962	-329.147018	-329.192607	34.997
C          0.29440        1.06700       -0.40990
C          0.37020       -0.42210       -0.06040
C          0.76790       -0.71290        1.39920
C         -0.17950       -0.09960        2.45220
C         -1.64630       -0.54080        2.37340
C          0.93260       -2.24450        1.57810
C          1.43960       -2.62330        2.89510
N          1.84390       -2.90530        3.94070
H          1.23690        1.57660       -0.18020
H          0.09500        1.20370       -1.47700
H         -0.50160        1.57720        0.14050
H         -0.59120       -0.90210       -0.28410
H          1.10400       -0.90440       -0.71900
H          1.75790       -0.26810        1.56660
H          0.21460       -0.33790        3.44680
H         -0.12800        0.99120        2.36600
H         -2.22970       -0.05440        3.16070
H         -2.10600       -0.27660        1.41570
H         -1.76110       -1.62100        2.51150
H         -0.02340       -2.75530        1.41500
H          1.62420       -2.63280        0.82170
