15
gdb 14909	4.54293	1.55721	1.26776	4.9495	67.21	-0.2725	-0.0067	0.2658	937.089	0.120258	-362.673539	-362.66657	-362.665625	-362.704947	25.933
N          0.00520       -1.14420       -0.04030
C         -0.01730        0.00950       -0.00350
C         -0.01620        1.48410       -0.01030
O         -0.74170        1.90960        1.12550
C         -0.56130        3.29460        1.40320
C          0.88840        3.59450        1.78240
C          1.81590        2.96070        0.78120
C          1.40560        2.01050       -0.05270
H         -0.54160        1.79520       -0.93330
H         -0.85320        3.89610        0.52780
H         -1.25210        3.52180        2.21830
H          1.04570        4.67950        1.81590
H          1.10480        3.21850        2.79100
H          2.84430        3.30860        0.74200
H          2.05820        1.56930       -0.79880
