11
gdb 21845	8.30526	1.23204	1.08868	3.2847	53.78	-0.2723	-0.0284	0.2439	972.5489	0.073682	-430.732594	-430.726124	-430.72518	-430.764	22.185
O         -0.06320        0.01450        0.15870
C         -0.01280        1.18280       -0.05010
O          1.06440        1.93120        0.36200
C          1.01610        3.27730        0.19180
N         -0.09530        3.99580        0.31730
N          0.34400        5.23250        0.09660
N          1.63730        5.37190       -0.14280
C          2.10000        4.12300       -0.09190
H         -0.76590        1.78950       -0.57470
H         -0.27890        6.02330        0.12750
H          3.13920        3.88910       -0.24920
