18
gdb 10298	2.28019	1.80189	1.23512	1.8289	69.38	-0.2573	0.0367	0.294	1038.017	0.151283	-384.902496	-384.89299	-384.892045	-384.936804	34.636
C          0.78300       -0.46120        1.22240
C         -0.04660       -0.04140        0.01360
O          0.63090       -0.29740       -1.21530
C         -1.47270       -0.65550       -0.01110
C         -2.22130       -0.24700       -1.31480
O         -2.06170        1.11970       -1.63040
C         -1.44180       -2.11120        0.08520
C         -1.39280       -3.31370        0.09770
H          1.76270        0.02220        1.18470
H          0.28860       -0.17190        2.15570
H          0.92770       -1.54620        1.24210
H         -0.18340        1.04370        0.02960
H          0.73080       -1.25410       -1.29610
H         -2.01690       -0.24400        0.84910
H         -1.87510       -0.88970       -2.13280
H         -3.29240       -0.42420       -1.18220
H         -1.18030        1.20960       -2.01040
H         -1.37180       -4.37500        0.13530
