12
gdb 21570	4.02993	1.91051	1.29673	7.2811	61.24	-0.2439	-0.0663	0.1776	851.1007	0.084428	-414.668603	-414.661952	-414.661008	-414.699289	25.125
N          0.03670        1.37970       -0.11330
C         -0.01680        0.01660       -0.04010
C         -1.16060       -0.72150       -0.01750
C         -1.10960       -2.15790        0.00650
O         -2.03120       -2.92810        0.02580
O          0.18690       -2.73100        0.01510
N          1.33950       -1.99450       -0.00370
C          1.23350       -0.71330       -0.03190
H          0.89140        1.84420        0.14530
H         -0.80570        1.90220        0.06520
H         -2.14730       -0.27430       -0.01870
H          2.18250       -0.18380       -0.05290
