19
gdb 9610	3.11934	1.46312	1.1894	1.7512	78.83	-0.2405	0.0385	0.2791	1091.9856	0.163326	-327.876495	-327.86733	-327.866386	-327.909958	34.102
C         -0.32220        1.49500        0.09600
C          0.29070        0.10550       -0.11420
C          0.87850       -0.48760        1.15600
C          2.10080        0.21300        1.71760
N         -0.12400       -1.00220        2.09950
C          0.77060       -1.96700        1.40590
C          0.17700       -2.89160        0.48010
C         -0.28330       -3.68420       -0.29860
H          0.42730        2.23670        0.39090
H         -0.79200        1.85320       -0.82480
H         -1.08910        1.45810        0.87580
H         -0.47650       -0.57680       -0.48950
H          1.07590        0.14950       -0.87990
H          1.86130        1.23660        2.02500
H          2.49480       -0.31530        2.59210
H          2.90010        0.26980        0.97080
H          0.19540       -0.88850        3.05940
H          1.57880       -2.39490        1.99650
H         -0.70040       -4.37950       -0.98410
