18
gdb 7989	3.40289	1.59131	1.15972	2.2125	67.78	-0.2368	-0.0167	0.2202	1031.2008	0.153179	-384.977578	-384.96937	-384.968425	-385.010195	30.739
C         -0.21960        1.52410       -0.00790
C          0.09600        0.03040       -0.02970
C          0.88080       -0.50360       -1.23790
C          1.51820       -1.81010       -0.74120
O          2.58850       -2.16310       -1.59830
C          1.93060       -1.48750        0.70580
C          0.92480       -0.43480        1.18010
O          0.80250       -0.02760        2.30660
H          0.69170        2.11670       -0.14180
H         -0.91790        1.79420       -0.80540
H         -0.66120        1.80000        0.95310
H         -0.84920       -0.53080        0.05110
H          0.26900       -0.65130       -2.13080
H          1.69040        0.18890       -1.50100
H          0.75390       -2.60410       -0.73510
H          2.93950       -3.01140       -1.31020
H          1.97760       -2.33910        1.38940
H          2.92340       -1.01750        0.69110
