21
gdb 14711	7.4015	0.65834	0.61612	2.8178	80.62	-0.2402	0.0297	0.2699	1881.393	0.186361	-366.265302	-366.25497	-366.254026	-366.302152	35.125
C          0.01760        1.33900        0.21530
C         -0.44470       -0.07280        0.58820
C         -1.46540       -0.61750       -0.42080
N         -2.01890       -1.94660       -0.23140
C         -1.67350       -2.65640        0.74630
O         -2.20060       -3.89110        0.90300
C         -1.75100       -4.61910        2.04720
C         -2.44340       -5.96950        2.04080
H          0.74500        1.72410        0.93620
H          0.48930        1.35260       -0.77340
H         -0.82600        2.03730        0.18790
H          0.42470       -0.74120        0.63670
H         -0.88500       -0.05950        1.59360
H         -2.31470        0.07850       -0.47690
H         -1.01740       -0.59680       -1.42460
H         -0.95660       -2.37850        1.52970
H         -0.65940       -4.74090        2.00720
H         -1.99280       -4.06180        2.96320
H         -2.19770       -6.52210        1.13010
H         -2.12540       -6.56030        2.90480
H         -3.52860       -5.84420        2.08370
