17
gdb 13605	3.33892	1.41452	1.30391	2.5215	65.85	-0.2462	0.0192	0.2654	1032.2108	0.140985	-401.016213	-401.00737	-401.006426	-401.050018	30.903
C          0.10200        1.41910       -1.08550
N          0.25930       -0.00600       -0.87920
C          0.35400       -0.56180        0.35660
O          0.35740        0.05600        1.40730
C          0.44710       -2.07090        0.35270
O          0.42700       -2.74680       -0.91080
C          1.63210       -2.80660       -0.13290
C          2.86980       -2.15820       -0.69260
H         -0.86490        1.65170       -1.54560
H          0.15380        1.89830       -0.10680
H          0.89720        1.81910       -1.72380
H          0.19850       -0.64760       -1.65520
H         -0.15220       -2.52620        1.13950
H          1.79430       -3.78750        0.31720
H          2.65970       -1.15970       -1.07970
H          3.63250       -2.07630        0.08860
H          3.28210       -2.76910       -1.50230
