15
gdb 11582	6.429	0.8368	0.78623	3.9402	74.92	-0.2477	-0.0155	0.2323	1424.5301	0.118182	-362.655234	-362.64658	-362.645635	-362.689846	29.917
N         -0.01360        1.30310        0.30670
C          0.03690       -0.00190       -0.10050
O          1.06530       -0.54920       -0.45240
C         -1.25160       -0.67150       -0.09360
C         -2.29040       -1.28760       -0.10910
C         -3.51280       -2.02720       -0.13230
C         -3.74250       -3.07260       -1.21810
C         -3.50040       -3.51760        0.18900
H          0.85810        1.79620        0.41180
H         -0.85090        1.69360        0.70200
H         -4.39240       -1.47950        0.19210
H         -4.74580       -3.14220       -1.62230
H         -2.94780       -3.20870       -1.94130
H         -2.54030       -3.95810        0.42790
H         -4.33480       -3.89800        0.76700
