14
gdb 16144	4.12978	1.82379	1.51674	3.3866	59.01	-0.248	-0.0263	0.2217	822.6601	0.106519	-419.653295	-419.646534	-419.64559	-419.684368	24.951
O         -0.30020        0.06130        0.13030
C         -0.08340        1.23930        0.01550
C          1.25190        1.85430       -0.11800
C          1.49600        3.31430        0.28280
C          1.57920        2.91700       -1.15910
O          2.81110        2.55030       -1.70400
C          3.39390        1.61120       -0.81310
O          2.34500        0.98830       -0.09210
H         -0.90420        1.99370       -0.00050
H          0.62000        3.88290        0.57810
H          2.39610        3.53970        0.84260
H          0.88110        3.28100       -1.90210
H          3.93780        0.85790       -1.38990
H          4.07930        2.12240       -0.11910
