16
gdb 17592	2.76076	2.45946	1.85125	1.6213	64.26	-0.228	0.0672	0.2952	781.3269	0.129962	-383.681226	-383.674005	-383.67306	-383.712076	28.611
O         -0.11230        1.39400        0.04730
C          0.01450        0.01660       -0.00190
C         -0.21610       -0.87070        1.20920
C         -1.13690       -1.00550        0.02570
O         -2.49200       -0.81680        0.21460
C         -0.49210       -1.76850       -1.10250
C         -0.26380       -0.87550       -2.29980
C          0.66680       -0.75400       -1.12340
H          0.59830        1.74940        0.59150
H          0.48060       -1.65950        1.48260
H         -0.67690       -0.35140        2.04460
H         -2.85900       -0.44710       -0.59660
H         -0.39520       -2.84660       -1.16460
H          0.14590       -1.36870       -3.17620
H         -0.95230       -0.06600       -2.52790
H          1.71910       -1.00690       -1.19420
