12
gdb 1823	6.47269	2.16529	1.65601	1.3644	51.9	-0.264	-0.0446	0.2194	691.9104	0.090172	-360.54737	-360.541252	-360.540308	-360.578038	21.79
N         -0.03700        1.23160        0.37180
C         -0.03400        0.03590       -0.02220
C         -1.25110       -0.83720       -0.20290
C         -0.69540       -2.16590       -0.68890
O         -1.29750       -3.16650       -0.96530
C          0.82370       -1.99590       -0.76640
O          1.10540       -0.66260       -0.35210
H          0.91530        1.60050        0.40970
H         -1.80360       -0.96170        0.73290
H         -1.94930       -0.41410       -0.93100
H          1.32800       -2.71140       -0.10690
H          1.18020       -2.15720       -1.79010
