16
gdb 20194	3.49212	2.97786	2.25364	0.1598	72.63	-0.2192	0.0147	0.2339	674.0866	0.133908	-309.462836	-309.457463	-309.456519	-309.491778	23.433
C         -0.01090        1.47480        0.06260
C          1.22910        1.98490        0.00350
C          2.26780        0.86420       -0.04150
C          2.54730        0.66850        1.44860
C          1.72360       -0.25730        1.96400
C          0.91210       -0.88890        0.91050
C          0.01270        0.00930       -0.07550
C          1.42110       -0.38650       -0.40850
H         -0.91600        2.04220        0.24460
H          1.49780        3.02350        0.15810
H          3.14250        1.05340       -0.66720
H          3.19050        1.33310        2.01370
H          1.61380       -0.48420        3.01790
H          0.54200       -1.90120        1.02490
H         -0.83650       -0.52460       -0.48630
H          1.68250       -1.03430       -1.23710
