18
gdb 18582	3.5698	2.06803	1.6753	1.4905	72.41	-0.2413	0.0184	0.2596	842.3902	0.155195	-347.805771	-347.798826	-347.797882	-347.83676	27.244
C         -0.78410        1.35210        0.02540
C         -0.01630        0.04930       -0.03140
O          1.15760        0.12700       -0.87850
C          1.98590       -0.52350        0.11110
C          3.15910        0.35220        0.57740
C          2.58760        1.07560        1.77590
C          1.36270        0.65680        2.09970
C          0.85850       -0.41410        1.17220
H         -0.15510        2.15690        0.41410
H         -1.12260        1.62960       -0.97810
H         -1.66740        1.25110        0.66580
H         -0.67410       -0.76200       -0.37780
H          2.28300       -1.52580       -0.21650
H          4.04400       -0.24130        0.84380
H          3.45980        1.03210       -0.22870
H          3.13980        1.84350        2.30740
H          0.77640        1.03740        2.92910
H          0.51190       -1.31670        1.68180
