18
gdb 13430	3.75372	1.31418	1.15621	4.4303	72.42	-0.2315	0.0334	0.2649	1082.6346	0.152527	-343.967308	-343.958266	-343.957322	-344.001506	31.856
C          0.00320        1.57240        0.66970
C          0.06570        0.09870        0.32500
C          0.24660       -0.42670       -1.06690
C          0.37620        0.50540       -2.26850
C          1.17290       -0.08790       -3.34460
N          1.80280       -0.56370       -4.18830
N          1.29300       -0.59740       -0.06570
C          2.56360        0.10480       -0.17100
H          0.58240        2.21050       -0.00030
H         -1.03570        1.91790        0.64260
H          0.37740        1.73940        1.68540
H         -0.55770       -0.50570        0.98470
H         -0.25060       -1.35910       -1.33240
H         -0.62420        0.72180       -2.66200
H          0.82120        1.46730       -2.00460
H          2.51340        1.14420       -0.52650
H          3.03650        0.11490        0.81570
H          3.21420       -0.45180       -0.85180
