15
gdb 21965	6.79005	1.13495	1.05363	1.5093	63.11	-0.2598	-0.0026	0.2572	1090.5874	0.120736	-395.97608	-395.968518	-395.967574	-396.009281	26.013
O         -0.07390        1.40440        0.01050
C          0.03170       -0.00720        0.00180
C         -1.40110       -0.54100        0.01230
N         -1.43380       -1.99110        0.00480
N         -1.41590       -2.69180       -1.12460
C         -1.38040       -3.95880       -0.70650
C         -1.37160       -3.96620        0.69440
N         -1.40180       -2.70390        1.12640
H          0.81280        1.77570        0.00240
H          0.54820       -0.37880       -0.89560
H          0.56490       -0.38850        0.88510
H         -1.91950       -0.19940        0.90950
H         -1.93620       -0.18940       -0.87110
H         -1.37100       -4.77580       -1.40990
H         -1.35340       -4.79080        1.38890
