17
gdb 4052	5.58039	1.2433	1.07349	1.3624	76.6	-0.2181	-0.0255	0.1926	1100.6088	0.142203	-363.845008	-363.837114	-363.83617	-363.877567	29.562
C         -0.17010        1.53640        0.01390
C          0.06300        0.01910       -0.01240
C          0.90040       -0.47040       -1.23000
C          1.99600       -1.33430       -0.62690
C          1.91100       -1.22850        0.82940
C          0.85130       -0.48620        1.17480
N          2.80170       -2.00610       -1.35750
O          3.72930       -2.72300       -0.57500
H          0.78270        2.07660        0.02050
H         -0.73670        1.85940       -0.86540
H         -0.73340        1.83590        0.90400
H         -0.92180       -0.46980       -0.01570
H          0.30580       -1.02510       -1.95970
H          1.34140        0.38120       -1.75970
H          2.61260       -1.70920        1.49580
H          0.55590       -0.25810        2.19410
H          4.25360       -3.16950       -1.24730
