19
gdb 1093	4.34045	1.43807	1.39965	0.1324	63.64	-0.2573	0.0644	0.3217	969.783	0.168637	-348.056024	-348.046794	-348.04585	-348.0892	33.548
C         -0.01980        1.52450       -0.04680
C          0.01680       -0.00890        0.02140
C          0.64870       -0.46570        1.34000
O         -1.32480       -0.51920        0.05820
C          0.76120       -0.56510       -1.20990
C          0.80920       -2.08580       -1.30280
O          1.33300       -2.41390       -2.58470
H          0.98780        1.95090       -0.00810
H         -0.48560        1.86130       -0.98070
H         -0.59980        1.92480        0.78950
H          0.12310       -0.01070        2.18430
H          0.58150       -1.55060        1.45100
H          1.70200       -0.17420        1.38800
H         -1.78090       -0.19800       -0.72750
H          0.26410       -0.19610       -2.11740
H          1.78230       -0.16670       -1.23740
H          1.44320       -2.50080       -0.50470
H         -0.20390       -2.48860       -1.16420
H          1.36060       -3.37220       -2.65720
