13
gdb 1500	6.89654	1.39031	1.17413	3.7987	58.42	-0.2665	-0.0582	0.2083	960.446	0.098147	-344.41106	-344.403057	-344.402112	-344.443828	26.65
C          0.01830        1.40250       -0.05280
O         -0.00530       -0.00590        0.01360
C          0.61650       -0.60890       -1.07470
C          0.55660       -2.12490       -0.94160
O          0.03960       -2.70170       -0.01680
C          1.18920       -2.83010       -2.04790
C          1.71460       -3.40320       -2.96670
H          1.04770        1.79330       -0.06680
H         -0.50530        1.77790       -0.94590
H         -0.49030        1.77410        0.83910
H          0.14350       -0.33470       -2.03640
H          1.68020       -0.31920       -1.16690
H          2.17480       -3.92420       -3.77120
