14
gdb 14656	19.60527	0.56028	0.54841	1.6607	106.17	-0.231	-0.0452	0.1858	1948.0414	0.104834	-308.205763	-308.196919	-308.195975	-308.239458	30.886
C         -0.04680        1.55890        0.06000
C          0.01050        0.02040       -0.01340
C          0.68720       -0.47080       -1.20260
C          1.25420       -0.86750       -2.19940
C          1.88600       -1.30780       -3.30980
C          2.45580       -1.70490       -4.31120
C          3.08850       -2.14580       -5.42290
C          3.65420       -2.53970       -6.41720
H          0.95950        1.98530        0.06980
H         -0.58130        1.96940       -0.80040
H         -0.56470        1.87140        0.97120
H          0.51860       -0.37350        0.87670
H         -1.00790       -0.38920        0.01450
H          4.15050       -2.88630       -7.28940
