18
gdb 16562	3.10466	2.55709	2.05934	1.7109	70.76	-0.2338	0.0144	0.2482	754.8982	0.157819	-347.820916	-347.81481	-347.813866	-347.850827	25.289
C         -0.00460        1.54210       -0.04380
O          1.36080        1.98160       -0.08170
C          2.17850        0.82740        0.16930
C          1.42290       -0.28720       -0.56230
C          0.02460       -0.00580        0.01910
C         -0.02780       -0.51660        1.47320
C          1.20280       -0.09920        2.24460
C          2.22850        0.51730        1.65680
H         -0.51750        1.97580        0.82450
H         -0.50280        1.90580       -0.95070
H          3.16930        1.04700       -0.23370
H          1.45240       -0.12220       -1.64340
H          1.79450       -1.29030       -0.33990
H         -0.78640       -0.44450       -0.56740
H         -0.92780       -0.13530        1.97480
H         -0.12450       -1.61260        1.48890
H          1.22170       -0.31730        3.30990
H          3.09470        0.83810        2.22760
