15
gdb 13339	6.31256	1.12123	1.00103	3.0284	62.18	-0.2464	-0.0234	0.223	1102.2926	0.119044	-399.818026	-399.810438	-399.809494	-399.851586	25.832
O         -0.52750        0.66580        0.80080
C          0.09880        0.92940       -0.19420
C          1.37340        1.75110       -0.19790
C          1.30550        2.93950       -1.17210
C          2.60390        3.79470       -1.20620
O          3.01040        3.76500       -2.59640
C          2.10430        2.97810       -3.21840
N          1.14080        2.47660       -2.56670
H         -0.22680        0.57970       -1.19570
H          1.56650        2.09330        0.82350
H          2.19920        1.09610       -0.50920
H          0.43950        3.55840       -0.90970
H          2.45040        4.83690       -0.91770
H          3.41430        3.37090       -0.60520
H          2.28820        2.83710       -4.27780
