17
gdb 7758	3.29943	1.93829	1.30933	3.1137	72.21	-0.2519	0.011	0.2629	943.5944	0.142771	-363.886708	-363.878997	-363.878053	-363.919824	28.452
C          0.15910        1.52890       -0.12950
C          0.00440        0.02590        0.10520
O          0.34130       -0.62410       -1.13500
C          1.02590       -1.79980       -1.20470
N          0.95090       -2.54070       -2.22910
C          1.96380       -2.16060       -0.07390
C          1.68410       -1.43710        1.20690
C          0.79440       -0.45570        1.28190
H          1.20970        1.78220       -0.29740
H         -0.42060        1.83310       -1.00470
H         -0.20150        2.08810        0.73910
H         -1.06190       -0.18740        0.28200
H          0.29340       -2.13860       -2.90060
H          1.92040       -3.24590        0.06180
H          2.99010       -1.95390       -0.40940
H          2.24300       -1.74610        2.08560
H          0.59370        0.05650        2.21870
