16
gdb 17266	3.19756	2.16937	1.81958	2.5289	65.06	-0.2539	0.0735	0.3274	791.2488	0.130116	-383.660298	-383.653431	-383.652487	-383.690914	27.231
O         -0.09680        1.34350        0.02670
C          0.01030       -0.02780        0.01300
C          0.57690       -0.97520       -1.10450
C          0.02640       -1.92250        0.01020
C          0.68880       -0.97880        1.05880
C         -1.18510       -0.98120        0.07620
C         -2.49470       -0.97370        0.70360
O         -2.32250       -0.98400       -0.74080
H          0.78080        1.72620       -0.07760
H          0.04760       -0.97790       -2.05870
H          1.66320       -0.97420       -1.23150
H          0.03210       -3.00850        0.00880
H          1.78160       -0.97810        1.06290
H          0.27330       -0.98310        2.06920
H         -2.91230       -1.88880        1.12050
H         -2.90150       -0.04790        1.10630
