19
gdb 1976	6.6949	1.36325	1.25272	1.3826	67.86	-0.2525	0.0787	0.3311	1004.381	0.171229	-310.912991	-310.905014	-310.90407	-310.945115	29.583
C         -0.16760        1.50570        0.05180
C          0.11570        0.00370       -0.05190
C          0.76430       -0.57250        1.20040
C         -0.07330       -0.66670        2.51070
C          0.59570       -2.02500        2.79320
O         -0.27480       -2.99220        3.33440
C          0.98730       -2.10930        1.29210
H          0.75670        2.07290        0.21000
H         -0.63990        1.88690       -0.85890
H         -0.83690        1.72510        0.89070
H         -0.82090       -0.53540       -0.24800
H          0.76570       -0.18970       -0.91590
H          1.70590       -0.04620        1.39920
H          0.02230        0.12130        3.26080
H         -1.13410       -0.82380        2.28780
H          1.48930       -1.89960        3.42240
H          0.22380       -3.80350        3.47420
H          0.21270       -2.65200        0.73990
H          1.96900       -2.51140        1.02770
