14
gdb 11181	3.74517	1.56912	1.42586	3.168	61.28	-0.2619	-0.0373	0.2246	887.4442	0.108363	-378.749899	-378.742818	-378.741873	-378.781693	25.807
O          0.00270        0.02130       -0.20190
C         -0.02310        1.20740       -0.02610
C         -1.27280        2.06770        0.18050
N         -0.73310        3.35180        0.62830
C          0.56580        3.55060       -0.03180
C          1.19130        2.14390        0.02610
C          0.43940        4.03210       -1.42640
N          0.28880        4.42280       -2.50430
H         -1.81630        2.10530       -0.77870
H         -1.93550        1.62190        0.92720
H         -1.36470        4.12800        0.47300
H          1.15430        4.28830        0.52140
H          1.69360        2.00170        0.98830
H          1.90140        1.92590       -0.77170
