20
gdb 9546	3.29379	1.5198	1.3356	2.1653	70.59	-0.2405	0.0675	0.3079	1021.5945	0.175193	-386.12215	-386.112876	-386.111931	-386.156017	33.758
C         -0.25720        1.45970       -0.06510
C          0.08220       -0.01870       -0.00190
O          1.23420       -0.34910       -0.81470
C          1.99680       -0.76260        0.33800
C          0.77410       -0.60030        1.27110
C          0.95100        0.29770        2.48980
C          0.16600       -1.94500        1.65730
O          1.04710       -2.58740        2.56770
H          0.59190        2.08200        0.22950
H         -0.53160        1.72710       -1.09030
H         -1.10630        1.69430        0.58630
H         -0.79300       -0.60400       -0.32240
H          2.39110       -1.77990        0.23770
H          2.82940       -0.07710        0.54390
H          1.43820        1.24210        2.23360
H         -0.01470        0.53030        2.95360
H          1.56340       -0.21120        3.23880
H         -0.82770       -1.78300        2.10840
H          0.02410       -2.55220        0.74970
H          0.68620       -3.45240        2.78090
