21
gdb 17624	3.2218	1.4236	1.06931	1.6156	74.52	-0.2456	0.0717	0.3173	1156.0553	0.187369	-366.237377	-366.227812	-366.226868	-366.2717	35.113
C          0.01290        1.54230        0.12490
C          0.00770        0.00940        0.07540
C          0.33900       -0.58890        1.44980
C         -1.33460       -0.51840       -0.47090
O         -1.66040        0.07460       -1.73120
C         -1.37750       -2.03190       -0.57110
C         -2.20150       -2.83760        0.36650
N         -2.61060       -2.68060       -1.03610
H          0.99850        1.92020        0.41480
H         -0.25430        1.96580       -0.84520
H         -0.71270        1.90820        0.86170
H          0.78600       -0.31360       -0.63440
H          0.41190       -1.67930        1.42020
H          1.29250       -0.19810        1.81880
H         -0.43040       -0.32530        2.18540
H         -2.14270       -0.18460        0.19530
H         -1.05990       -0.29020       -2.39140
H         -0.47230       -2.48460       -0.97900
H         -1.89010       -3.84050        0.64530
H         -2.75240       -2.30590        1.13860
H         -3.34150       -1.97690       -1.11990
