20
gdb 17784	5.79367	1.01273	0.9947	2.0418	75.34	-0.2326	0.0821	0.3147	1264.6652	0.176905	-348.935935	-348.927923	-348.926979	-348.968933	30.194
C          0.09710        1.58550        0.20460
C          0.03020        0.06960        0.00240
C          0.88100       -0.41710       -1.18010
C          0.85140       -1.93030       -1.33610
C         -0.33640       -2.71720       -1.97090
C          0.06880       -2.23620       -3.38490
C          1.33270       -2.68220       -2.61100
O          0.57900       -3.87010       -2.14290
H          1.12440        1.91360        0.39870
H         -0.25680        2.11990       -0.68410
H         -0.51940        1.90320        1.05120
H          0.35990       -0.43880        0.91760
H         -1.01300       -0.23460       -0.15320
H          0.54810        0.08680       -2.09450
H          1.92300       -0.10440       -1.02500
H          1.20710       -2.43310       -0.43130
H         -1.32890       -2.92510       -1.56910
H         -0.22780       -2.90520       -4.19330
H         -0.05200       -1.18310       -3.64490
H          2.34740       -2.84600       -2.97680
