14
gdb 17236	5.11167	1.80973	1.5986	2.7697	62.47	-0.2455	-0.0348	0.2107	791.8213	0.106665	-382.477275	-382.470964	-382.470019	-382.507811	24.005
O         -0.28390        0.48280       -0.67610
C          0.20110        1.10630        0.23930
C          1.41630        1.91880        0.11490
O          1.91690        2.69540        1.19780
C          2.76390        3.36210        0.21770
C          3.79500        2.26810       -0.17450
C          2.60520        1.57250       -0.83320
C          1.84990        2.87070       -0.96810
H         -0.24600        1.11690        1.25690
H          3.03330        4.37790        0.49590
H          4.50360        2.62940       -0.92350
H          4.31530        1.77560        0.65160
H          2.56040        0.70020       -1.47090
H          1.29400        3.33570       -1.76980
