16
gdb 11269	4.15023	1.50686	1.23327	2.731	67.85	-0.2318	-0.0673	0.1646	985.11	0.131321	-379.949094	-379.941507	-379.940563	-379.981136	27.757
C          0.42580        1.54890        0.03420
C          0.02280        0.07390        0.09710
C          0.43410       -0.73710       -1.17260
N          1.66270       -1.46960       -0.81860
C          1.76270       -1.36290        0.45740
N          0.77150       -0.67530        1.12130
C          2.89990       -1.95400        1.20730
O          3.05740       -1.78920        2.39350
H          1.49230        1.65140       -0.19220
H         -0.14100        2.06530       -0.74770
H          0.22480        2.05720        0.98330
H         -1.05190       -0.00580        0.28720
H         -0.33870       -1.46510       -1.45130
H          0.60550       -0.09690       -2.04400
H          1.00530       -0.24890        2.00680
H          3.59600       -2.53850        0.57660
