16
gdb 12770	3.89667	1.69588	1.30917	2.4313	68.63	-0.2191	0.0163	0.2355	945.5701	0.129428	-379.86867	-379.860659	-379.859715	-379.901049	29.561
C         -0.02500        1.36700        0.05450
N         -0.01800       -0.08770        0.06430
C         -1.09510       -0.70170       -0.14680
N         -2.47220       -0.31240       -0.34550
C         -2.89010       -1.70340        0.01670
C         -2.40140       -2.60240       -1.07790
C         -1.41470       -2.15980       -0.02770
O         -0.64730       -3.07040        0.65090
H          0.83410        1.72270       -0.52310
H         -0.93350        1.81200       -0.37420
H          0.10100        1.74650        1.07630
H         -2.78840        0.40690        0.29700
H         -3.70200       -1.90100        0.70230
H         -2.66880       -3.64900       -0.96180
H         -2.35280       -2.23960       -2.10140
H         -0.12400       -2.57500        1.29360
