15
gdb 3508	6.54216	1.94945	1.88338	1.818	57.56	-0.2378	0.0752	0.313	724.1778	0.124571	-345.565792	-345.559358	-345.558414	-345.59629	23.673
C          0.00600        1.36090       -0.16870
O         -0.03350        0.06820        0.40310
C         -1.25350       -0.57490        0.22670
C         -1.55730       -1.42910       -1.05210
C         -0.47640       -2.44490       -0.61450
C         -1.33470       -2.06700        0.61700
O         -2.54800       -2.15400       -0.22770
H          0.97660        1.79520        0.08050
H         -0.09960        1.32800       -1.26280
H         -0.78860        2.00440        0.23730
H         -2.10930        0.02550        0.56060
H         -1.86760       -1.12460       -2.05180
H         -0.62220       -3.46060       -0.98350
H          0.56360       -2.11700       -0.62350
H         -1.37500       -2.51950        1.60770
