17
gdb 1916	5.69634	2.04985	1.80069	1.0968	63.93	-0.2465	0.083	0.3295	755.4915	0.147979	-309.688191	-309.681127	-309.680183	-309.718614	27.422
C         -0.09950        1.56890        0.06920
C          0.06730        0.05480        0.02730
C          1.13640       -0.56550       -0.94460
C          1.77880       -1.26770        0.25880
O          2.22420       -2.57910        0.24660
C          2.22540       -0.26890        1.28580
C          0.76000       -0.65390        1.20440
H          0.85110        2.07830        0.25890
H         -0.49270        1.94640       -0.88120
H         -0.79740        1.86550        0.85990
H         -0.90500       -0.41050       -0.16230
H          0.69550       -1.27300       -1.65020
H          1.77230        0.13820       -1.49400
H          3.16030       -2.57760        0.01860
H          2.74480       -0.70780        2.13210
H          2.57270        0.72380        1.00800
H          0.25710       -1.10080        2.05370
