20
gdb 18086	4.56556	1.09712	1.06425	1.4445	74.69	-0.25	0.0804	0.3304	1192.8888	0.177768	-348.966368	-348.958138	-348.957194	-348.999556	30.821
O         -0.08770        1.38670        0.03070
C         -0.10260       -0.01830        0.23790
C         -1.43550       -0.55450       -0.27320
C         -1.54250       -2.05840       -0.12690
C         -1.90430       -2.79420        1.14010
C         -2.99250       -2.05950        1.93620
C         -3.92840       -2.11890        0.68560
C         -2.82320       -2.84930       -0.08960
H          0.74750        1.73040        0.36030
H          0.72670       -0.50860       -0.29900
H          0.01060       -0.26780        1.30520
H         -2.23780       -0.03980        0.26390
H         -1.54130       -0.27400       -1.32840
H         -0.77040       -2.59110       -0.68200
H         -1.26370       -3.57010        1.54360
H         -3.38010       -2.65670        2.76440
H         -2.73310       -1.06820        2.32210
H         -4.80160       -2.75090        0.86110
H         -4.27270       -1.16700        0.26900
H         -2.99190       -3.67230       -0.77470
