15
gdb 4203	4.2831	1.61349	1.56682	1.4241	64.33	-0.2491	0.0095	0.2586	859.3288	0.119718	-399.721098	-399.714436	-399.713492	-399.751905	25.777
O         -0.09350        1.37160        0.02070
N          0.06340       -0.03140       -0.00410
C         -1.05170       -0.61170       -0.07390
C         -2.54810       -0.35380       -0.00060
C         -3.05310       -0.90350       -1.35340
C         -2.23800       -2.24360       -1.35780
C         -1.51060       -2.05180       -0.00760
O         -2.60060       -1.55540        0.84840
H          0.81820        1.67250        0.10030
H         -2.99370        0.53590        0.43680
H         -4.13220       -1.06720       -1.32950
H         -2.81210       -0.24560       -2.19180
H         -2.87940       -3.12670       -1.33400
H         -1.54680       -2.32850       -2.19980
H         -0.92410       -2.86110        0.42190
