17
gdb 16039	3.47701	1.76702	1.44946	1.4771	76.67	-0.2393	0.0319	0.2712	922.2676	0.141193	-326.644238	-326.636492	-326.635548	-326.675851	29.889
C         -0.12520        1.49410        0.01550
N          0.11180        0.06000        0.07890
C          1.38800       -0.55040       -0.18940
C          2.58460        0.26680        0.32920
C          1.95670        0.25240        1.75520
C          0.76770       -0.57870        1.20830
C          0.10570       -1.61570        1.93060
C         -0.42060       -2.48140        2.57960
H          0.70140        2.12560        0.36870
H         -0.33700        1.76210       -1.02420
H         -1.01180        1.72570        0.61270
H          1.43110       -1.34420       -0.92780
H          3.51790       -0.29760        0.28430
H          2.74460        1.24070       -0.14210
H          2.55350       -0.32010        2.46650
H          1.69730        1.21320        2.20800
H         -0.89720       -3.24770        3.13860
