16
gdb 12898	3.27999	1.83591	1.51124	5.6859	69.55	-0.2314	0.0355	0.2669	885.2139	0.131224	-342.752425	-342.744936	-342.743992	-342.78401	28.034
C          0.00940        1.56750       -0.03290
C         -0.00490        0.07050        0.06410
C         -1.25990       -0.81680        0.06080
N         -0.57570       -1.83060        0.93890
C          0.57880       -0.92750        1.04570
C          1.20660       -0.77970       -0.32550
C          1.15890       -1.81330       -1.32430
N          1.12290       -2.62490       -2.14770
H          0.99680        1.97110        0.21230
H         -0.24220        1.90030       -1.04660
H         -0.71600        2.01400        0.65600
H         -2.09680       -0.31920        0.56020
H         -1.59400       -1.21910       -0.90050
H         -1.05460       -1.91640        1.82860
H          1.16040       -0.81190        1.95350
H          2.13200       -0.21040       -0.32540
