14
gdb 10795	4.75128	1.58541	1.2582	2.0589	57.65	-0.2631	-0.0404	0.2227	901.3196	0.107362	-419.734106	-419.727153	-419.726209	-419.765828	25.354
O          0.00760       -0.01140        0.45730
C         -0.05350        1.12560        0.06320
C         -1.33460        1.92120       -0.08920
C         -1.17670        2.95260       -1.21710
C         -0.00670        3.88130       -0.94440
O         -0.01440        5.06540       -1.12390
O          1.09970        3.29090       -0.41150
C          1.20890        1.86610       -0.38300
H         -2.16700        1.23370       -0.25560
H         -1.52620        2.43670        0.86160
H         -1.00340        2.44070       -2.17280
H         -2.06570        3.57150       -1.34040
H          2.02670        1.63160        0.30040
H          1.48920        1.48830       -1.37690
