19
gdb 7951	3.37205	1.7261	1.30596	3.3554	72.51	-0.2519	0.0348	0.2867	989.2033	0.166203	-365.099741	-365.091678	-365.090734	-365.131931	30.738
C         -0.70420        1.31360        0.01700
C          0.14040        0.04410       -0.05220
C          1.30450        0.07280       -1.05420
C          2.25020       -0.97270       -0.50850
N          3.17190       -1.55040       -1.14970
O          1.95030       -1.21160        0.80480
C          0.86780       -0.36360        1.25360
C          1.43520        0.77700        2.09270
H         -0.09400        2.19280        0.24590
H         -1.20130        1.49560       -0.94080
H         -1.48340        1.23450        0.78270
H         -0.51210       -0.79530       -0.32220
H          1.02210       -0.15070       -2.08350
H          1.80420        1.04950       -1.05580
H          3.66860       -2.20590       -0.54320
H          0.22890       -0.99230        1.88210
H          2.05690        1.44920        1.49280
H          0.63140        1.36400        2.54670
H          2.05590        0.36840        2.89440
