17
gdb 2013	5.36199	2.10073	2.00897	1.7381	64.35	-0.2308	0.0933	0.3241	734.8427	0.148106	-309.658574	-309.651808	-309.650863	-309.689207	25.842
C         -0.02930        1.52600       -0.03960
C          0.03300       -0.00480       -0.06600
C          0.80980       -0.53790       -1.23390
C          2.25270       -0.21080       -1.71980
C          1.52840       -1.04090       -2.80080
C          1.00250       -2.00320       -1.71360
O          0.32470       -0.20230       -2.60910
H          0.96920        1.96080        0.07150
H         -0.45930        1.90800       -0.96940
H         -0.64340        1.87760        0.79440
H          0.49190       -0.38880        0.85390
H         -0.97950       -0.42440       -0.11130
H          2.43110        0.83260       -1.98180
H          3.09050       -0.66970       -1.18770
H          1.83000       -1.25370       -3.82600
H          1.72370       -2.62880       -1.18060
H          0.08150       -2.53030       -1.96720
