19
gdb 7521	3.34948	1.3727	1.29983	1.4204	77.46	-0.2249	0.0545	0.2794	1062.7905	0.162564	-327.865688	-327.856465	-327.855521	-327.899225	34.159
C         -0.27070        1.43500        0.05160
N         -0.01630        0.00940        0.18060
C          1.29260       -0.50220       -0.21210
C          0.87160       -0.50770        1.22160
C          1.57070        0.40740        2.20860
C          0.38350       -1.83080        1.82110
C         -0.55960       -1.65230        2.92080
C         -1.33110       -1.48670        3.82790
H          0.61540        2.07600        0.17840
H         -0.67890        1.62590       -0.94620
H         -1.02240        1.73640        0.78770
H          1.29500       -1.41570       -0.80350
H          2.05960        0.21920       -0.49530
H          1.94430        1.31810        1.73680
H          0.89540        0.68770        3.02300
H          2.42840       -0.10860        2.65390
H         -0.09100       -2.41450        1.02530
H          1.24890       -2.40940        2.17240
H         -2.01910       -1.35250        4.62520
