16
gdb 5553	3.21579	1.82114	1.20184	1.7216	69.29	-0.1722	0.0437	0.2159	971.3919	0.131919	-379.941865	-379.933746	-379.932802	-379.97447	29.991
N          0.06080        1.45620       -0.02410
C          0.02430        0.04540       -0.01330
C         -1.09250       -0.76040        0.10420
C         -2.54040       -0.44910        0.21900
O         -3.27130       -1.42890       -0.52530
N         -0.64850       -2.06750        0.19240
C          0.71080       -2.10460        0.08930
C          1.16580       -0.80940       -0.01930
H          0.82610        1.80220       -0.59030
H         -0.79920        1.86100       -0.37520
H         -2.87770       -0.45940        1.27020
H         -2.72860        0.56830       -0.16130
H         -4.19860       -1.35380       -0.27910
H         -1.27280       -2.85250        0.12810
H          1.24730       -3.03980        0.09160
H          2.19760       -0.49800       -0.08360
