13
gdb 3140	4.38606	2.79551	1.95569	3.8807	56.5	-0.2387	0.0132	0.2518	651.9723	0.102214	-340.594424	-340.588205	-340.587261	-340.624335	23.089
N         -0.07250        1.19260        0.41230
C         -0.01100       -0.01380        0.04560
N          0.94670       -0.87510       -0.50300
C          0.10280       -2.08500       -0.41530
C         -1.01750       -1.14730        0.07690
C         -2.15030       -1.36470        0.97420
O         -2.32920       -1.10370       -0.42560
H          0.81590        1.68000        0.28590
H          1.94110       -0.83690       -0.33410
H         -0.08170       -2.56680       -1.37950
H          0.43510       -2.82760        0.31860
H         -2.39570       -2.37570        1.29640
H         -2.45510       -0.55920        1.63910
