13
gdb 1642	4.97294	2.02486	1.45221	8.8749	52.78	-0.2307	-0.0335	0.1972	791.4402	0.101413	-377.816466	-377.808827	-377.807883	-377.84901	25.863
C          0.13480        1.52630        0.01060
N         -0.06060        0.09000        0.00270
H          0.70850       -0.58720       -0.01010
C         -1.19580       -0.55760        0.01000
N         -2.40710       -0.05120        0.02630
C         -1.09790       -2.13660       -0.00190
O          0.07730       -2.52450       -0.01710
O         -2.21250       -2.67100        0.00580
H          1.20370        1.74040        0.00110
H         -0.31780        1.99030       -0.87330
H         -0.29940        1.97800        0.91000
H         -2.64470        0.92690        0.03580
H         -3.11380       -0.78800        0.02870
