14
gdb 10380	2.57336	2.13653	1.45306	1.9281	64.65	-0.2496	-0.0433	0.2063	875.9317	0.104441	-382.48537	-382.477429	-382.476485	-382.518155	28.047
O         -0.79310        0.79680        0.45940
C          0.19750        0.86950       -0.21500
C          1.33110        1.88150        0.01440
C          1.32030        2.55670        1.40540
C          2.52900        1.64990        1.70290
O          2.51230        1.09880        0.35840
C          1.50040        2.71030       -1.16450
C          1.59410        3.37550       -2.16190
H          0.41010        0.16770       -1.04810
H          1.53140        3.62450        1.38670
H          0.40910        2.35700        1.96850
H          3.47380        2.16400        1.90540
H          2.36920        0.87250        2.45740
H          1.69190        3.97280       -3.03520
