19
gdb 6376	3.68214	1.19865	0.94791	3.5687	69.52	-0.2341	0.0385	0.2726	1248.3775	0.164011	-402.238837	-402.229084	-402.228139	-402.273932	34.229
C         -0.56050        1.33000        0.59060
N         -0.93240       -0.06660        0.49800
C         -0.91520       -0.74800       -0.67910
O         -0.57800       -0.25690       -1.74400
C         -1.32730       -2.22330       -0.58790
C         -2.45980       -2.57770        0.38800
C         -2.94000       -4.01640        0.21250
O         -2.08380       -2.33580        1.75470
H          0.30410        1.47120        1.24980
H         -0.30070        1.66920       -0.41280
H         -1.38830        1.93880        0.97210
H         -1.24000       -0.56930        1.31990
H         -1.60500       -2.51590       -1.60360
H         -0.43620       -2.81330       -0.32780
H         -3.30100       -1.89480        0.22330
H         -2.11300       -4.72350        0.35440
H         -3.71970       -4.24710        0.94330
H         -3.34380       -4.17630       -0.79160
H         -1.40550       -2.98070        1.98810
