14
gdb 16720	6.1564	1.41672	1.26279	5.3831	69.94	-0.2547	-0.0481	0.2066	924.2147	0.109594	-341.583454	-341.577081	-341.576137	-341.613993	24.441
N          0.04970       -1.12390        0.12620
C         -0.01100        0.03230        0.07730
C         -0.04260        1.45020        0.00320
C         -1.15260        2.20620       -0.03380
C         -0.79950        3.64990       -0.02700
N         -0.06430        4.03910        1.21370
C          0.69150        3.71530       -0.00850
C          1.23090        2.29020       -0.02770
H         -2.16580        1.82550       -0.03620
H         -1.42600        4.38460       -0.51910
H         -0.10890        5.05260        1.30740
H          1.23500        4.50290       -0.51790
H          1.87140        2.08260        0.83550
H          1.81650        2.08440       -0.93110
