19
gdb 18720	3.10778	2.16182	1.47412	1.9952	70.67	-0.2399	0.0681	0.308	897.3151	0.167942	-365.043911	-365.036615	-365.035671	-365.075174	28.602
C         -0.05110        1.53480        0.02640
C          0.03700        0.00560        0.00470
C          0.73750       -0.50510       -1.26400
O          0.88890       -1.91390       -1.23510
C          1.84260       -2.34130       -0.27770
C          1.65020       -1.71010        1.09490
N          2.20650       -0.35210        1.26800
C          0.74610       -0.53810        1.23210
H          0.95020        1.97530        0.06700
H         -0.55730        1.91650       -0.86700
H         -0.60960        1.88710        0.90010
H         -0.97680       -0.41690        0.00550
H          0.13200       -0.27890       -2.14690
H          1.71450       -0.01100       -1.37890
H          1.72600       -3.42730       -0.20950
H          2.86360       -2.12580       -0.63210
H          1.72830       -2.39150        1.93880
H          2.52310       -0.21920        2.22440
H          0.20340       -0.42880        2.17000
