15
gdb 15037	2.78073	1.65281	1.17859	1.0428	62.41	-0.2607	-0.0653	0.1954	995.4904	0.116541	-399.770975	-399.762623	-399.761679	-399.805241	28.223
O         -0.27960        0.07310        0.22210
C         -0.08830        1.24150        0.01810
C          1.29020        1.88400       -0.04280
C          1.45620        2.69520       -1.32130
O          2.52410        2.95610       -1.81190
C          1.47010        2.76950        1.20200
C          2.57000        3.75840        1.29180
N          1.16910        4.21150        1.21920
H         -0.93600        1.95260       -0.11640
H          2.04660        1.09280       -0.02470
H          0.51290        3.06110       -1.78620
H          1.16570        2.26300        2.11570
H          3.05630        3.92720        2.24790
H          3.20440        3.88530        0.41950
H          0.96830        4.56250        0.28570
