20
gdb 8701	2.66433	1.57482	1.29477	2.9036	70.97	-0.2411	-0.0175	0.2236	1056.6117	0.173517	-386.150573	-386.140386	-386.139442	-386.185558	35.95
C          0.03220        1.57550        0.22350
C         -0.00680        0.06300       -0.02020
C          0.75130       -0.42740       -1.27140
C          2.21660        0.04070       -1.32010
C          0.70660       -1.97190       -1.27790
O          1.30670       -2.44630       -2.47500
C          0.04300        0.03030       -2.55010
O         -1.10260        0.40150       -2.60230
H          1.04910        1.93770        0.40200
H         -0.38390        2.12280       -0.62650
H         -0.56430        1.83020        1.10480
H          0.40420       -0.45660        0.85510
H         -1.05130       -0.25080       -0.11570
H          2.73320       -0.23250       -0.39380
H          2.74150       -0.43450       -2.15220
H          2.29400        1.12500       -1.43930
H          1.24140       -2.34270       -0.38870
H         -0.34090       -2.29990       -1.20250
H          1.23650       -3.40480       -2.49150
H          0.66930       -0.01470       -3.46660
