14
gdb 9227	7.24963	0.84774	0.81067	1.2276	55.96	-0.2739	-0.0457	0.2282	1333.2197	0.103492	-456.841829	-456.832881	-456.831937	-456.87873	28.959
O          0.21890        1.15510       -0.52170
C          0.02740       -0.05400        0.15310
C         -1.41290       -0.51490        0.04660
O         -2.26290        0.11680       -0.53160
O         -1.61050       -1.68870        0.67350
C         -2.93520       -2.23580        0.65310
C         -2.94200       -3.53570       -0.13420
O         -3.81690       -4.35210       -0.04100
H         -0.64840        1.41010       -0.86780
H          0.67280       -0.84640       -0.25390
H          0.27590        0.03430        1.22180
H         -3.24690       -2.42100        1.68380
H         -3.62360       -1.52400        0.18590
H         -2.07130       -3.66090       -0.81600
