16
gdb 1481	4.7337	1.5545	1.3371	3.3866	59.65	-0.2637	0.0184	0.2822	921.8074	0.135273	-362.909074	-362.900811	-362.899866	-362.94209	28.59
C         -0.01640        1.58090       -0.01960
C          0.04010        0.05760        0.00950
C          0.76080       -0.49730        1.23970
O          0.12980       -0.10860        2.44170
O         -1.29150       -0.48970        0.09050
C         -1.97180       -0.66440       -1.05740
N         -3.17330       -1.04920       -1.02930
H          0.99190        1.99430       -0.12230
H         -0.61820        1.93570       -0.86110
H         -0.45160        1.95350        0.91010
H          0.53190       -0.32930       -0.89450
H          0.82080       -1.59250        1.14970
H          1.78200       -0.10390        1.27330
H         -0.78230       -0.41760        2.38370
H         -1.37270       -0.45610       -1.95510
H         -3.52720       -1.15280       -1.97790
