15
gdb 5260	7.57298	1.15943	1.01827	0.2756	63.63	-0.2146	0.0046	0.2191	1118.0613	0.119255	-399.823255	-399.815775	-399.81483	-399.856007	26.384
C         -0.04810        1.48970        0.01070
C          0.01060       -0.02590        0.00240
O         -1.34260       -0.50530        0.01030
C         -1.50990       -1.83420        0.00520
C         -2.69270       -2.50740        0.01070
O         -2.38850       -3.84920        0.00200
C         -1.04820       -3.89510       -0.00810
N         -0.46230       -2.73810       -0.00690
H          0.96580        1.90080        0.00490
H         -0.57840        1.86280       -0.86990
H         -0.56460        1.85370        0.90330
H          0.52710       -0.40540       -0.88660
H          0.54070       -0.41460        0.87930
H         -3.73040       -2.23230        0.01970
H         -0.58910       -4.87100       -0.01620
