14
gdb 19134	3.33164	1.8162	1.35337	1.5424	62.33	-0.2735	0.0062	0.2798	888.4617	0.107277	-378.674828	-378.667518	-378.666574	-378.706788	26.336
N          1.09940       -1.04750       -0.52320
C          0.65740        0.00760       -0.34970
C          0.11550        1.33450       -0.16520
C         -0.10650        1.80960        1.23530
N          0.99020        2.36350        0.43840
C         -0.76800        1.80950       -1.29090
C         -2.19650        1.47510       -1.32160
O         -1.74310        2.78270       -0.95410
H         -0.93470        2.49120        1.39620
H          0.11830        1.12110        2.04400
H          1.87810        1.94920        0.71340
H         -0.24490        1.98950       -2.22960
H         -2.71210        1.41010       -2.27710
H         -2.62520        0.88770       -0.51170
