16
gdb 19129	3.30242	1.75785	1.33889	3.7874	69.16	-0.2666	0.0326	0.2992	929.8657	0.131562	-342.758653	-342.751132	-342.750188	-342.790686	27.96
N         -0.08130       -1.07440        1.31060
C         -0.10310       -0.03390        0.80470
C         -0.15370        1.26230        0.17620
C          0.75790        2.34560        0.74080
C          1.08100        1.72390       -0.58190
C         -1.52520        1.64740       -0.32320
N         -1.57430        2.73850       -1.29970
C         -1.96510        1.37910       -1.71450
H          0.34760        3.34880        0.73640
H          1.36590        2.09310        1.60100
H          1.91310        1.03310       -0.64110
H          0.88350        2.31190       -1.47010
H         -2.29410        1.62130        0.44640
H         -2.39500        3.31600       -1.14350
H         -1.27890        0.90530       -2.41030
H         -3.01540        1.16510       -1.88910
