16
gdb 14624	2.55507	1.63017	1.07059	2.7248	64.68	-0.261	0.0183	0.2793	1078.574	0.12927	-417.0435	-417.034601	-417.033657	-417.079173	29.469
N         -1.20200        0.94490       -0.65020
C         -0.94720       -0.28920       -0.64950
O         -1.18100       -1.01820        0.46660
C         -0.98850       -2.42410        0.39290
C         -2.31720       -3.14510        0.21030
O         -2.85560       -2.89620       -1.08090
C         -3.82410       -1.95730       -1.19120
N         -4.25430       -1.63950       -2.33220
H         -0.95900        1.34750       -1.55280
H         -0.53340       -0.87870       -1.47740
H         -0.30880       -2.68370       -0.42820
H         -0.52850       -2.73580        1.33650
H         -2.16230       -4.22610        0.29130
H         -3.01950       -2.83450        0.99380
H         -4.15430       -1.55490       -0.22520
H         -4.98440       -0.93610       -2.24280
