13
gdb 3399	4.81962	2.39469	2.21232	2.9846	54.25	-0.2398	-0.0092	0.2306	632.6523	0.101488	-344.436248	-344.430123	-344.429179	-344.466124	23.131
O         -0.14820        1.40490        0.04260
C         -0.08590        0.01370       -0.03260
C         -1.33310       -0.77190        0.01820
C         -2.46350       -0.01920       -0.70360
C         -1.60090       -0.09040       -1.98650
O         -1.82990        0.14120       -3.13950
C         -0.45720       -0.76750       -1.28850
H          0.54070        1.77090       -0.52210
H          0.76130       -0.43060        0.49160
H         -1.47750       -1.60210        0.69690
H         -3.37410       -0.61090       -0.83030
H         -2.71130        0.97190       -0.32110
H          0.20960       -1.51050       -1.70980
