18
gdb 8284	6.97328	0.95237	0.94055	3.9851	71.63	-0.2229	0.0271	0.25	1267.4133	0.154005	-381.11884	-381.11048	-381.109536	-381.152402	29.887
C         -0.13120        1.52400       -0.08670
N         -0.05010        0.09310        0.09290
C         -1.22000       -0.62200        0.63170
C         -0.24100       -1.56070        1.38320
C          0.80840       -0.44020        1.16480
N         -0.55720       -1.96770        2.72530
C         -0.55070       -3.26610        3.14130
O         -0.28350       -4.22420        2.44950
H          0.83850        1.91320       -0.41470
H         -0.86670        1.76040       -0.86280
H         -0.42210        2.06260        0.83650
H         -1.81330       -0.01600        1.34110
H         -1.89420       -1.05570       -0.11390
H         -0.01240       -2.46470        0.82160
H          1.82200       -0.72250        0.86280
H          0.86970        0.22450        2.04620
H         -0.79780       -1.25820        3.40020
H         -0.82440       -3.35060        4.21200
