17
gdb 6997	2.65785	1.98775	1.53316	2.7082	64.97	-0.2396	0.0261	0.2657	904.8004	0.140205	-401.026438	-401.017631	-401.016687	-401.059296	32.188
C         -0.13010        1.56540       -0.10220
C          0.05060        0.06290        0.02720
N          1.14740       -0.51820       -0.77500
C          1.74920       -1.18110        0.26090
O          2.64610       -1.98150        0.33320
C          0.76200       -0.55190        1.28560
C          1.37010        0.38810        2.31300
O         -0.06580       -1.52830        1.89060
H          0.81240        2.09950        0.04380
H         -0.51120        1.82130       -1.09660
H         -0.85640        1.92820        0.63220
H         -0.89950       -0.45800       -0.13210
H          1.23040       -0.65940       -1.77230
H          1.98800        1.16060        1.84710
H          0.58320        0.86820        2.90250
H          2.01050       -0.18200        2.99400
H          0.51600       -2.19580        2.27390
