15
gdb 12060	4.59329	1.61299	1.49094	0.8581	61.78	-0.2563	-0.0449	0.2115	858.5176	0.118227	-399.755077	-399.748021	-399.747077	-399.786312	26.787
O         -0.02580        1.45810       -0.01850
C         -0.04130        0.06970        0.01720
C          0.18860       -0.65130        1.39570
N         -1.09890       -1.41270        1.28550
C         -2.14410       -0.37880        1.25650
C         -1.40360       -0.63530        0.00780
C          0.88570       -0.49420       -1.03430
O          1.52920        0.22200       -1.76290
H          0.59760        1.70030       -0.72340
H          1.04270       -1.33150        1.42370
H          0.23720        0.03710        2.24410
H         -3.14760       -0.78800        1.31760
H         -1.99060        0.55090        1.79880
H         -1.86320       -1.10440       -0.85670
H          0.94540       -1.59930       -1.09190
