13
gdb 4360	4.05907	1.99375	1.34812	2.0282	61.26	-0.2722	-0.0436	0.2286	852.0217	0.097567	-394.858142	-394.851372	-394.850428	-394.890202	24.083
C          0.00390        1.46490        0.06240
C          0.03130       -0.03340        0.02600
N          0.06130       -0.62400       -1.17840
C          0.08470       -1.95420       -1.14060
N          0.08110       -2.72280       -0.05370
C          0.05030       -2.02390        1.07770
O          0.04480       -2.72910        2.20780
N          0.02450       -0.69150        1.18750
H          0.88460        1.86420       -0.45030
H         -0.87150        1.83290       -0.48150
H         -0.02060        1.82600        1.09030
H          0.10940       -2.47190       -2.09740
H          0.02160       -2.08650        2.93140
