15
gdb 19124	3.31798	1.79985	1.34257	2.612	67.52	-0.244	0.0281	0.272	913.3989	0.117594	-362.569656	-362.561992	-362.561048	-362.601751	28.435
C          0.83020       -1.24400       -0.37580
C          0.46790       -0.10440       -0.24370
C          0.04110        1.26610       -0.13590
C         -0.13180        1.86840        1.22080
N          1.00590        2.26780        0.38450
C         -0.80710        1.74940       -1.28490
C         -2.26430        1.58100       -1.27760
O         -1.66190        2.85600       -1.03220
H          1.14790       -2.25200       -0.48080
H         -0.89220        2.63340        1.33690
H          0.04070        1.22700        2.07960
H          1.84810        1.78590        0.69110
H         -0.28810        1.78570       -2.24270
H         -2.80320        1.49130       -2.21880
H         -2.74260        1.11930       -0.41540
