15
gdb 21186	3.47076	1.8316	1.21399	1.7999	63.99	-0.1801	0.0382	0.2182	951.381	0.120137	-395.987117	-395.979096	-395.978152	-396.019507	28.969
C         -0.18660        1.42350       -0.02620
N          0.19150        0.03360        0.14840
C          0.68980       -0.63580       -0.97060
C          1.23520       -0.14260       -2.14180
N          1.61750       -1.22460       -2.87930
N          1.34840       -2.40000       -2.26650
C          0.79270       -2.04140       -1.12280
O          0.35260       -2.93450       -0.20350
H          0.70610        2.02680       -0.22890
H         -0.89860        1.59000       -0.85250
H         -0.63170        1.79570        0.89960
H         -0.51250       -0.51400        0.62410
H          1.37910        0.86520       -2.49390
H          2.06520       -1.23350       -3.77670
H          0.51720       -3.81520       -0.56170
