18
gdb 13892	3.88076	1.53085	1.35332	2.6236	63.51	-0.2501	0.078	0.3281	971.4122	0.15359	-422.076656	-422.068275	-422.067331	-422.110224	30.003
C          0.53190        0.39040       -0.87380
C          0.04730       -0.23650        0.43150
O         -0.04060        0.70510        1.49170
C         -1.30770       -0.93350        0.28780
O         -2.28300        0.01870       -0.08430
C         -3.30080       -0.72780       -0.73260
C         -2.50760       -1.82120       -1.46870
O         -1.29220       -1.92060       -0.72850
H          1.49190        0.88560       -0.70970
H          0.65230       -0.37480       -1.64510
H         -0.18820        1.13110       -1.23460
H          0.76660       -0.99140        0.76760
H         -0.75420        1.31260        1.26300
H         -1.59000       -1.39620        1.25040
H         -3.99240       -1.16360        0.00350
H         -3.85690       -0.06100       -1.39460
H         -3.02640       -2.78610       -1.47370
H         -2.27990       -1.53710       -2.50320
