9
gdb 788	9.52134	3.75318	2.69202	1.6519	40.1	-0.2581	-0.0063	0.2518	438.1162	0.062841	-321.219665	-321.215152	-321.214207	-321.247368	16.549
O          0.11330        1.34660        0.13530
C          0.07300        0.00780        0.06990
N          0.10810       -0.63410       -1.07360
O          0.04720       -1.98720       -0.72810
C         -0.02130       -2.08880        0.60610
C         -0.01020       -0.86600        1.19070
H          0.16850        1.68280       -0.76950
H         -0.07300       -3.09360        0.99700
H         -0.05300       -0.60980        2.23480
