16
gdb 2433	5.50195	2.77682	2.39851	1.8309	63.72	-0.2193	0.0852	0.3045	626.1898	0.138143	-288.564752	-288.558908	-288.557964	-288.593906	23.403
C         -0.04660        1.48320        0.02920
C          0.05840       -0.01210        0.00160
C          0.90820       -0.90240       -0.89270
N          0.04080       -2.08590       -0.50910
C          0.38820       -2.23970        0.96010
C         -0.27320       -0.90000        1.22580
C         -1.02340       -1.05280       -0.06810
H          0.85750        1.93880        0.44960
H         -0.18690        1.88900       -0.97920
H         -0.89500        1.81160        0.63900
H          0.76730       -0.67990       -1.95490
H          1.97730       -1.03220       -0.68360
H         -0.17420       -3.07960        1.37730
H          1.45690       -2.37530        1.16420
H         -0.61850       -0.46160        2.15460
H         -2.06690       -1.05600       -0.35050
