16
gdb 18735	3.25543	2.20152	1.50841	1.7971	59.93	-0.2511	0.0595	0.3107	829.481	0.131458	-420.848938	-420.841957	-420.841013	-420.879953	26.695
O         -0.05220        1.40670       -0.04230
C          0.00210       -0.00890        0.03690
C          0.72530       -0.49200        1.30240
O          0.67130       -1.90520        1.38770
C         -0.63220       -2.39740        1.64800
C         -1.72290       -1.72810        0.82870
O         -2.12890       -0.42650        1.26720
C         -1.41500       -0.52970        0.03290
H          0.84430        1.73500       -0.16490
H          0.51040       -0.43770       -0.84230
H          1.78600       -0.22370        1.26240
H          0.27060       -0.01000        2.17880
H         -0.60170       -3.46700        1.41760
H         -0.88270       -2.28500        2.71550
H         -2.54760       -2.37110        0.52130
H         -2.00400       -0.29730       -0.85360
