16
gdb 15122	8.0001	0.7704	0.73145	5.0967	66.67	-0.2536	0.0193	0.2729	1471.1204	0.130263	-379.891292	-379.88293	-379.881986	-379.925345	28.665
N          0.11180       -1.10300        0.41700
C          0.07250        0.03560        0.22810
C          0.01460        1.48440        0.01430
N          1.35090        2.06010       -0.05580
C          1.33280        3.50790       -0.24130
C          2.74630        4.02840       -0.25510
C          3.10060        5.32140        0.33870
O          3.38380        4.10160        1.02620
H         -0.50050        1.67040       -0.93680
H         -0.62550        1.91900        0.80460
H          1.86330        1.84250        0.79380
H          0.85270        3.72860       -1.20430
H          0.75990        4.03950        0.54000
H          3.38040        3.62200       -1.04290
H          3.96930        5.86280       -0.03180
H          2.32390        5.94030        0.78620
