14
gdb 11982	2.69473	2.38017	1.78449	1.4187	57.64	-0.2422	-0.035	0.2073	778.7019	0.10444	-419.642631	-419.635046	-419.634102	-419.674209	27.958
C         -0.04720        1.61450       -0.09600
C          0.00260        0.10120       -0.03240
O         -1.25570       -0.49370        0.22500
C          0.69000       -0.65830       -1.18530
O          2.03190       -0.20410       -1.20520
C          1.70850       -1.28970       -0.30340
C          1.06860       -0.60940        0.89450
O          1.13800       -0.72750        2.08190
H          0.91390        2.01700       -0.42430
H         -0.83200        1.93690       -0.78720
H         -0.27070        2.02590        0.89450
H         -1.48110       -0.31760        1.14620
H          0.24760       -1.05610       -2.09020
H          2.27080       -2.21000       -0.40320
