12
gdb 515	20.01298	1.29514	1.23498	3.9327	57.54	-0.2632	-0.0579	0.2053	914.8563	0.094355	-269.216495	-269.209287	-269.208342	-269.248873	22.875
C         -0.03710        1.56390       -0.01840
C          0.01280        0.02590        0.02010
C          0.70820       -0.50490        1.18340
C          1.28690       -0.94090        2.15060
C          1.98120       -1.42470        3.31420
O          2.15350       -2.59310        3.57820
H          0.97130        1.98520       -0.03820
H         -0.57000        1.90060       -0.91180
H         -0.55280        1.95830        0.86080
H         -1.00540       -0.38410        0.00440
H          0.50190       -0.35750       -0.88470
H          2.36290       -0.62240        3.97870
