16
gdb 15055	2.89067	1.61114	1.1	1.5287	67.13	-0.2667	0.0271	0.2938	1065.2999	0.127332	-383.659403	-383.65065	-383.649706	-383.693227	30.63
C         -1.30360       -0.49290        0.04490
O          0.08940       -0.72530       -0.02940
C          0.78370       -0.46540        1.17800
C          0.38430       -1.36940        2.26570
C          0.06330       -2.12320        3.14490
C          2.26250       -0.61320        0.85890
C          3.04250        0.53380        0.39030
O          3.15620        0.06000        1.73640
H         -1.52270        0.55360        0.30760
H         -1.71080       -0.70320       -0.94630
H         -1.78710       -1.14740        0.78170
H          0.61080        0.57420        1.50430
H         -0.21640       -2.78270        3.92930
H          2.56260       -1.61900        0.56800
H          3.91480        0.37000       -0.23970
H          2.55680        1.50160        0.27490
