12
gdb 23713	5.94627	1.55732	1.2348	1.3176	60.01	-0.2254	-0.0409	0.1845	871.6502	0.085723	-418.864381	-418.858122	-418.857178	-418.894669	23.955
N         -0.01550        1.34510        0.14530
C          0.00260       -0.01870        0.05390
N         -1.18880       -0.64150        0.03570
C         -1.15840       -1.97020        0.00120
C          0.03820       -2.67030       -0.01860
F          0.05620       -4.00660       -0.05340
C          1.21540       -1.93790       -0.01240
N          1.21010       -0.60890        0.02200
H          0.83780        1.82350       -0.08980
H         -0.88400        1.80010       -0.08000
H         -2.10810       -2.49980       -0.01510
H          2.17900       -2.44150       -0.03960
