13
gdb 19895	4.17849	2.088	1.72704	5.9239	61.2	-0.2584	0.0146	0.2731	743.5055	0.095677	-361.383936	-361.37783	-361.376885	-361.414078	23.647
N         -0.15480       -1.21330       -0.12010
C          0.02370       -0.07880        0.01540
C          0.09890        1.36040        0.08590
C          0.48970        2.21380        1.27520
C          1.72120        1.65300        2.05370
O          2.14700        0.43340        1.44320
C          2.53290        1.67010        0.84060
C          1.33610        2.23160        0.01010
H         -0.72570        1.81520       -0.45940
H         -0.17230        2.97820        1.65940
H          1.95880        1.81330        3.09730
H          3.58600        1.84750        0.66540
H          1.42870        3.01180       -0.73340
