12
gdb 877	7.22586	2.12285	1.65302	1.9578	51.7	-0.1914	0.055	0.2464	696.1402	0.092363	-356.72869	-356.722257	-356.721312	-356.758866	23.632
N          0.13420        1.41320        0.17820
C         -0.00810        0.01930        0.03150
C         -1.05690       -0.85030       -0.05970
N         -0.60940       -2.16530       -0.12290
C          0.69010       -2.07030       -0.07820
O          1.57630       -3.08220       -0.12440
N          1.12990       -0.79120        0.01680
H          0.16880        1.89770       -0.71430
H         -0.63470        1.80290        0.70960
H         -2.11040       -0.61650       -0.08160
H          1.05150       -3.88950       -0.19750
H          2.07910       -0.47840        0.13060
