18
gdb 20302	4.14723	1.71867	1.58427	2.5294	70.95	-0.2182	0.069	0.2873	880.6339	0.15604	-343.895816	-343.888773	-343.887829	-343.927434	27.134
C          0.39860        1.41950        0.19940
N          1.02930        0.35080       -0.59420
C         -0.28820        0.11380        0.01500
C         -0.49930       -0.86410        1.13490
C         -0.24230       -2.31870        1.14700
C          1.06500       -2.71080        0.45840
C          1.76470       -1.73370        1.43060
N          0.46600       -1.37850        2.12690
H          0.89400        1.62970        1.14290
H          0.00220        2.29090       -0.31440
H          0.92100        0.53740       -1.58700
H         -1.14420        0.13190       -0.66110
H         -1.41730       -0.60200        1.66440
H         -0.99700       -3.02290        1.48720
H          1.33800       -3.75410        0.62700
H          1.13310       -2.49320       -0.61000
H          2.40350       -2.23970        2.15770
H          2.29250       -0.88940        0.99180
