19
gdb 10175	3.31751	1.06855	0.85207	3.0028	72.08	-0.2743	0.0325	0.3068	1355.7251	0.164052	-365.081449	-365.071638	-365.070693	-365.116574	33.897
C         -0.07360        1.54340        0.07920
C          0.01450        0.01870       -0.00330
C          0.72040       -0.50090       -1.27790
C          0.88030       -2.03500       -1.26250
C          1.65450       -2.58800       -2.45350
O          1.78360       -3.98630       -2.25510
C          0.00160       -0.06140       -2.48090
N         -0.57500        0.27920       -3.42350
H          0.92220        2.00000        0.06830
H         -0.64050        1.95520       -0.76110
H         -0.57090        1.85130        1.00340
H          0.57070       -0.37260        0.85600
H         -0.98830       -0.42080        0.04520
H          1.71960       -0.04530       -1.32510
H          1.40600       -2.31490       -0.34340
H         -0.10570       -2.51030       -1.22670
H          1.11850       -2.36040       -3.38660
H          2.64190       -2.09960       -2.51430
H          2.18320       -4.36670       -3.04250
