17
gdb 3158	4.03094	2.5403	1.89169	1.7056	64.14	-0.2394	0.0785	0.3179	734.8483	0.147975	-309.686797	-309.679749	-309.678805	-309.7177	26.423
C         -0.29200        1.46340        0.06460
C          0.11730        0.00590       -0.01200
O          1.33940       -0.18570       -0.77340
C          1.98780       -0.86970        0.32020
C          0.77030       -0.64970        1.20900
C          0.72790       -0.21650        2.64180
C          0.16910       -1.56160        2.23000
H          0.49740        2.06640        0.52210
H         -0.48760        1.85080       -0.94020
H         -1.20840        1.57770        0.65470
H         -0.69730       -0.59480       -0.44410
H          2.21280       -1.91670        0.07450
H          2.91470       -0.36760        0.62760
H          1.66110       -0.19630        3.19650
H          0.02780        0.56370        2.92310
H         -0.90940       -1.68800        2.23050
H          0.72140       -2.45430        2.50700
