19
gdb 8675	2.63638	1.59265	1.29351	3.1774	71.18	-0.2825	0.0311	0.3136	1047.1858	0.163819	-365.084362	-365.074772	-365.073828	-365.118186	34.656
C         -0.02890        1.55910       -0.10280
C          0.00820        0.03420        0.02550
C          0.71190       -0.50700        1.29670
C          0.02970       -0.03540        2.59780
C          0.71860       -2.06340        1.24720
O          1.39220       -2.65640        2.33350
C          2.12130       -0.08110        1.30400
N          3.24270        0.20310        1.31370
H          0.98050        1.98180       -0.08810
H         -0.49840        1.84710       -1.04780
H         -0.60220        2.02310        0.70490
H         -1.01350       -0.36510        0.02870
H          0.50740       -0.39140       -0.85290
H         -1.03780       -0.27470        2.55330
H          0.46510       -0.55410        3.45370
H          0.13780        1.04060        2.74670
H         -0.31920       -2.40790        1.30330
H          1.13310       -2.39080        0.28260
H          2.33060       -2.44800        2.25380
