14
gdb 9244	6.45598	0.78359	0.71747	5.5721	71.94	-0.2609	-0.0444	0.2165	1461.496	0.106513	-378.690802	-378.681909	-378.680965	-378.724745	30.455
N         -0.09950        1.47630        0.00440
C          0.01600        0.01500       -0.01820
C          0.69880       -0.55240       -1.28270
O         -0.07050       -0.08700       -2.37640
C          0.70180       -0.46520        1.17680
C          1.29690       -0.87340        2.14540
C          1.96800       -1.33400        3.24190
N          2.54250       -1.72770        4.17160
H          0.82860        1.88880        0.05860
H         -0.49050        1.75900       -0.89080
H         -1.00650       -0.38850       -0.00870
H          1.73700       -0.18930       -1.32560
H          0.72070       -1.65100       -1.23400
H          0.36850       -0.33870       -3.19370
