18
gdb 4544	3.81245	1.65005	1.17071	1.8613	76.89	-0.1664	0.0536	0.22	1035.0295	0.154227	-344.018789	-344.009961	-344.009017	-344.051978	32.069
C          0.06350        1.42640        0.01830
N         -0.03850       -0.01440        0.02130
C         -0.02680       -0.80110       -1.12080
C         -0.02120       -2.12190       -0.73260
N         -0.11020       -3.25970       -1.56240
C         -0.01270       -2.13400        0.69140
C         -0.01610       -0.82480        1.12930
C          0.00200       -0.28610        2.52230
H          1.10090        1.77180        0.12110
H         -0.33560        1.81370       -0.92210
H         -0.52260        1.85360        0.83630
H         -0.03970       -0.35000       -2.10030
H          0.21490       -3.07250       -2.50290
H          0.42300       -4.03670       -1.19150
H         -0.02880       -3.00810        1.32630
H          0.89020        0.32480        2.72910
H         -0.87520        0.33520        2.74500
H          0.00230       -1.11590        3.23280
