13
gdb 212	8.71953	3.56689	2.57362	2.0318	55.54	-0.2006	0.0463	0.2469	510.1975	0.110002	-249.387499	-249.381908	-249.380963	-249.416542	20.193
C          2.19970        1.44630        0.00980
N         -0.03960       -0.00010        0.00230
C         -0.01020       -0.79140       -1.11980
C          0.04240       -2.10710       -0.72050
C          0.05140       -2.11480        0.70120
C          0.00300       -0.80350        1.11520
H          1.02790        1.82810        0.00290
H         -0.52120        1.83370       -0.86900
H         -0.50540        1.82380        0.90210
H         -0.03040       -0.34640       -2.10230
H          0.05710       -2.96560       -1.37430
H          0.07420       -2.98030        1.34540
H         -0.00560       -0.36920        2.10270
