18
gdb 16680	3.95694	1.72227	1.57955	3.1819	71.65	-0.2304	-0.0026	0.2277	886.9362	0.155442	-347.81689	-347.810003	-347.809059	-347.847671	27.54
C         -0.15260        1.52880        0.05540
C          0.01840        0.01570        0.01470
C          0.77160       -0.60900       -1.20510
C          2.09870       -0.27820       -0.46330
C          1.24070       -0.58660        0.81030
C          0.97540       -2.06870        0.59320
O          1.01500       -2.97580        1.37970
C          0.62570       -2.11530       -0.91500
H          0.77550        2.07400       -0.13550
H         -0.88360        1.84710       -0.69610
H         -0.52690        1.84590        1.03430
H         -0.94600       -0.45490        0.24140
H          0.58400       -0.27010       -2.22440
H          2.96680       -0.91450       -0.65780
H          2.39210        0.76880       -0.52800
H          1.51490       -0.27160        1.81540
H         -0.38370       -2.50780       -1.07340
H          1.33010       -2.74670       -1.46550
