15
gdb 4044	4.32078	1.41505	1.10249	2.1549	64.68	-0.2459	-0.0282	0.2177	1015.6061	0.11799	-399.79375	-399.786242	-399.785298	-399.826031	27.775
O         -0.15760        1.33650        0.21650
N          0.00080       -0.05940        0.24280
C         -1.09940       -0.65150        0.00590
C         -1.18830       -2.16470       -0.02190
C         -2.64510       -2.45700        0.38180
C         -3.43830       -1.20920       -0.02840
O         -4.62870       -1.15220       -0.18440
C         -2.45870       -0.04130       -0.20820
H          0.72450        1.64690        0.44740
H         -1.00560       -2.52150       -1.04400
H         -0.43910       -2.62770        0.62210
H         -3.07700       -3.35690       -0.05970
H         -2.73700       -2.55180        1.47180
H         -2.66700        0.76820        0.49900
H         -2.57430        0.39410       -1.20820
