13
gdb 4279	3.85578	2.01016	1.32346	7.7785	63.35	-0.2229	-0.0152	0.2078	850.6165	0.098482	-394.846598	-394.839933	-394.838989	-394.877301	25.475
N          0.03710        1.36880        0.13010
C         -0.01400       -0.00850        0.03420
N         -1.15070       -0.61980        0.02040
C         -1.19610       -2.02620        0.01020
O         -2.25430       -2.62450        0.02610
C          0.10370       -2.72210       -0.03400
C          1.24760       -2.02110       -0.02390
N          1.20770       -0.64050        0.00560
H          0.76230        1.83540       -0.39600
H         -0.87670        1.78030        0.00060
H          0.10510       -3.80330       -0.06750
H          2.23800       -2.45960       -0.04210
H          2.05260       -0.11340        0.15240
