14
gdb 5668	5.2584	2.17881	1.54051	3.2982	69.1	-0.1761	0.0489	0.225	767.0148	0.110597	-341.625447	-341.618991	-341.618047	-341.655651	25.074
N         -0.04440        1.34420        0.00990
C          1.26290        1.83870        0.00000
C          2.15290        0.79320       -0.01430
C          1.38160       -0.41580       -0.01340
C          0.04860       -0.01790        0.00180
N         -0.77590       -1.10620        0.00370
C          0.04630       -2.23640       -0.01060
C          1.36380       -1.84980       -0.02140
H         -0.87660        1.90430        0.02270
H          1.43070        2.90370        0.00420
H          3.22740        0.89370       -0.02440
H         -1.77900       -1.11850        0.01370
H         -0.39710       -3.21910       -0.01160
H          2.20750       -2.52290       -0.03340
