24
gdb 8949	3.68315	1.05967	0.87925	1.3573	81.97	-0.2603	0.0736	0.3339	1420.1394	0.221044	-351.419173	-351.408367	-351.407423	-351.45485	39.25
C         -0.20760        1.54430        0.03190
C          0.05660        0.03540        0.01530
C          0.80410       -0.47240       -1.23490
C          2.27060       -0.01400       -1.23850
C          0.66880       -2.00850       -1.35310
O         -0.70690       -2.39980       -1.34720
C          1.39010       -2.61440       -2.56570
C          1.23030       -4.13460       -2.65990
H          0.71660        2.13100        0.02960
H         -0.79570        1.85160       -0.84070
H         -0.77110        1.83030        0.92580
H          0.63190       -0.24710        0.90820
H         -0.89540       -0.49860        0.08260
H          0.30920       -0.04210       -2.12210
H          2.83830       -0.52050       -0.44830
H          2.76810       -0.21580       -2.19050
H          2.34600        1.06170       -1.05700
H          1.07810       -2.46210       -0.43900
H         -1.11390       -2.02850       -2.13860
H          1.00090       -2.13910       -3.47920
H          2.45440       -2.36210       -2.52120
H          1.67600       -4.62930       -1.78970
H          0.17470       -4.41450       -2.69120
H          1.72160       -4.52780       -3.55510
