20
gdb 8179	2.66949	2.46617	1.69669	1.5814	73.69	-0.2376	0.0846	0.3223	869.4833	0.177662	-348.999745	-348.992122	-348.991178	-349.031002	30.44
C         -0.08320        1.56420       -0.01470
C          0.07490        0.04590        0.02530
C          1.02480       -0.56770       -1.05680
C          1.95020       -1.33840       -0.09480
C          2.29820       -0.30340        0.99140
C          0.79240       -0.54550        1.27460
C          0.15650       -0.40320        2.62850
O          0.99520       -1.93590        0.83570
H          0.88160        2.07780        0.05840
H         -0.55160        1.88120       -0.95240
H         -0.71600        1.92340        0.80430
H         -0.91410       -0.41990       -0.03580
H          0.50750       -1.23830       -1.74630
H          1.55620        0.19100       -1.64040
H          2.67340       -2.04350       -0.50460
H          2.92420       -0.72820        1.77730
H          2.64680        0.69040        0.69840
H          0.09080        0.65170        2.91390
H         -0.85740       -0.81790        2.62140
H          0.73810       -0.93120        3.38900
