22
gdb 10721	2.38723	1.68818	1.37827	1.283	77.78	-0.2614	0.0742	0.3355	1065.3301	0.198783	-350.191466	-350.181844	-350.1809	-350.225415	36.152
C          1.41980       -1.14190       -1.07380
C          0.37280       -0.40470       -0.22030
C         -1.04080       -0.76490       -0.69650
C          0.62030       -0.63730        1.27850
C          1.77580        0.16640        1.83770
O          1.43950        1.54860        1.76740
C         -0.50940       -0.88270        2.25260
C          0.42180       -2.00910        1.88180
H          1.30880       -2.22810       -0.97880
H          1.30660       -0.88670       -2.13270
H          2.44370       -0.88770       -0.78310
H          0.50490        0.67230       -0.37960
H         -1.28020       -1.81870       -0.51060
H         -1.80350       -0.15170       -0.20890
H         -1.12570       -0.60090       -1.77560
H          1.96280       -0.13870        2.87960
H          2.69630       -0.03810        1.26930
H          2.22950        2.05940        1.96640
H         -0.41990       -0.44270        3.24010
H         -1.52580       -0.92620        1.88200
H          0.03220       -2.79180        1.23960
H          1.13620       -2.36250        2.61850
