14
gdb 4310	3.97787	1.87486	1.27539	4.7307	70.97	-0.1941	-0.0253	0.1688	893.9794	0.109212	-378.758425	-378.751636	-378.750692	-378.789126	26.64
N          0.02240        1.39230        0.16060
C         -0.01860        0.01780        0.05670
C         -1.17730       -0.69870        0.03600
C         -1.18940       -2.13620       -0.00510
N         -2.23750       -2.85610       -0.02070
O          0.07650       -2.76420       -0.03780
C          1.20640       -2.03930       -0.02060
C          1.23860       -0.69920        0.02550
H          0.84460        1.84950       -0.20140
H         -0.83330        1.88490       -0.04520
H         -2.14850       -0.22020        0.05360
H         -1.99320       -3.84510       -0.05610
H          2.08740       -2.67020       -0.04780
H          2.18660       -0.17750        0.05080
