20
gdb 6484	3.35952	1.43228	1.20253	2.5409	75.19	-0.2356	-0.0104	0.2252	1086.7817	0.174657	-349.019458	-349.010177	-349.009233	-349.054201	33.842
C          1.90800       -0.35620       -3.32000
C          1.80850       -0.67750       -1.84000
O          2.79290       -0.80710       -1.14770
C          0.40490       -0.85780       -1.26110
C         -0.03320       -2.32480       -1.26520
C          0.81470       -3.25280       -0.41440
C         -1.51790       -2.59540       -1.32320
C         -0.65300       -2.88050       -2.52860
H          1.36560       -1.10310       -3.90990
H          1.43720        0.61250       -3.52530
H          2.95410       -0.32680       -3.62730
H          0.42590       -0.48960       -0.22950
H         -0.31760       -0.26040       -1.82760
H          0.79710       -2.94230        0.63660
H          0.43840       -4.27890       -0.46790
H          1.86040       -3.25420       -0.73460
H         -1.90040       -3.43810       -0.75670
H         -2.19630       -1.75010       -1.37210
H         -0.76090       -2.22790       -3.38880
H         -0.45160       -3.91530       -2.78430
