13
gdb 21918	5.22631	1.79	1.42242	3.6486	60.24	-0.2614	-0.0035	0.2579	816.2163	0.097642	-394.729775	-394.723546	-394.722602	-394.760307	23.085
O          0.29770        1.36680        0.30980
C          0.08760        0.01060        0.06850
C         -1.41330       -0.52590        0.03550
N         -1.09060       -0.96440       -1.33940
N         -1.46230       -1.61610       -2.44490
N         -0.40070       -1.56600       -3.22470
C          0.63390       -0.91080       -2.61210
C          0.17620       -0.51990       -1.37100
H         -0.09180        1.87350       -0.41200
H          0.70820       -0.53140        0.78500
H         -1.65680       -1.34630        0.71310
H         -2.17470        0.25540        0.08100
H          1.58140       -0.78040       -3.10650
