23
gdb 1691	3.74455	1.64436	1.23926	0.0663	77.88	-0.2985	0.0837	0.3822	1068.0204	0.216155	-276.201993	-276.192206	-276.191262	-276.237012	35.513
C         -0.05980        1.58730        0.10090
C          0.05610        0.05950        0.03460
C          0.73210       -0.48790       -1.24130
C          2.19980       -0.03390       -1.31030
C          0.59500       -2.03210       -1.34890
C         -0.87100       -2.48610       -1.45470
C          1.38110       -2.61540       -2.53530
H          0.91580        2.07940        0.15000
H         -0.58640        1.98080       -0.77620
H         -0.62250        1.89410        0.98840
H          0.61010       -0.30400        0.91170
H         -0.95200       -0.35650        0.12110
H          0.20590       -0.05580       -2.10770
H          2.66360       -0.28630       -2.26660
H          2.28860        1.04880       -1.18850
H          2.79210       -0.50530       -0.51580
H          1.01640       -2.46190       -0.42710
H         -0.92860       -3.57470       -1.55750
H         -1.46660       -2.21200       -0.58080
H         -1.35140       -2.04710       -2.33790
H          2.45930       -2.47070       -2.43600
H          1.20170       -3.69230       -2.62030
H          1.06590       -2.15490       -3.48000
