14
gdb 397	8.07928	1.9819	1.70664	1.7715	45.75	-0.2606	0.049	0.3096	694.4975	0.118969	-344.689237	-344.682195	-344.681251	-344.719856	25.116
O          0.05340        1.38550       -0.04840
C          0.09070       -0.02430        0.00100
C         -1.31430       -0.60970        0.10840
O         -2.12760       -0.11120       -0.97090
C         -1.37050       -2.13440        0.12730
O         -2.70280       -2.59510        0.19020
H         -0.69850        1.60930       -0.61130
H          0.59190       -0.44610       -0.89070
H          0.68930       -0.30840        0.87350
H         -1.79980       -0.21960        1.00950
H         -1.73890       -0.42970       -1.79650
H         -0.84940       -2.52740       -0.76610
H         -0.84470       -2.52400        1.00600
H         -3.20910       -2.01640       -0.39390
