20
gdb 7499	3.67384	1.28026	1.15117	2.0683	71.59	-0.2433	0.0769	0.3202	1135.0772	0.175463	-386.108489	-386.099345	-386.098401	-386.142701	32.343
C         -0.09640        1.36510        0.17030
O         -0.02630       -0.04020        0.13370
C         -1.27630       -0.65210       -0.09980
C         -1.08710       -2.16430       -0.10870
C         -0.15140       -2.61750       -1.22190
C         -0.82410       -2.72900        1.31020
O         -2.18150       -3.20980        1.41740
C         -2.43740       -2.90950        0.03210
H          0.91230        1.73890        0.36150
H         -0.45490        1.78090       -0.78470
H         -0.76530        1.71990        0.97020
H         -1.99520       -0.36860        0.68780
H         -1.69730       -0.31640       -1.06460
H          0.82110       -2.12680       -1.12930
H          0.00110       -3.70080       -1.19190
H         -0.56180       -2.36250       -2.20610
H         -0.09630       -3.55100        1.34230
H         -0.57610       -1.99940        2.08860
H         -3.35000       -2.31390       -0.10120
H         -2.51510       -3.81870       -0.58030
