20
gdb 16909	3.72594	1.75635	1.37485	1.3193	73.73	-0.2227	0.0794	0.302	963.6071	0.1788	-348.996678	-348.989177	-348.988233	-349.028133	29.75
C          0.01150        1.55920        0.00230
C          0.01150        0.02940       -0.00000
C          0.68130       -0.52590       -1.25890
O          0.54830       -1.93420       -1.37010
C          0.90230       -2.67510       -0.23810
C          2.23420       -2.53480        0.44580
C          0.96260       -2.04780        1.13120
C          0.69950       -0.54740        1.25190
H          1.03370        1.95410       -0.03760
H         -0.53590        1.96230       -0.85630
H         -0.45680        1.95060        0.91150
H         -1.02720       -0.32780       -0.01630
H          0.21200       -0.12140       -2.16120
H          1.74380       -0.22700       -1.28210
H          0.48680       -3.67290       -0.33200
H          2.71930       -3.43260        0.81340
H          2.92020       -1.77410        0.08720
H          0.59950       -2.65420        1.95480
H          1.64120       -0.00870        1.42400
H          0.07450       -0.35170        2.12950
