13
gdb 5045	3.55189	2.3586	1.60158	2.8058	70.5	-0.2471	-0.0792	0.1679	769.0619	0.097886	-357.650615	-357.644394	-357.64345	-357.681	23.431
N         -0.11910        1.02840       -0.73710
C         -0.02040       -0.01200       -0.01350
C         -1.26400       -0.69150        0.46150
N         -1.54940       -1.92050        0.25670
C         -0.68980       -2.83090       -0.30650
C          0.66600       -2.84690       -0.20520
C          1.45520       -1.79500        0.38370
N          1.16360       -0.54280        0.49800
H          0.81480        1.38370       -0.96230
H         -1.97800       -0.08370        1.01820
H         -1.19400       -3.68320       -0.75510
H          1.18950       -3.75290       -0.49630
H          2.43120       -2.08750        0.77750
