15
gdb 18657	3.07254	2.68617	1.61834	3.5255	66.8	-0.2376	-0.003	0.2347	779.7952	0.120811	-362.6739	-362.667537	-362.666592	-362.704338	24.727
O         -0.13740        0.23500        0.80450
C         -0.11500        1.25580        0.16170
C         -1.35200        1.93110       -0.42140
C         -1.37190        3.37580        0.04150
C         -0.24140        4.05950        0.22610
C          1.06450        3.41440       -0.05490
C          1.80500        2.59890        0.97520
N          1.06940        1.96040       -0.10420
H         -1.33360        1.87810       -1.51820
H         -2.23020        1.38020       -0.08030
H         -2.33810        3.83250        0.23490
H         -0.24760        5.09850        0.54130
H          1.67540        3.89320       -0.82150
H          2.88790        2.52550        0.92490
H          1.37770        2.52540        1.97140
