19
gdb 6728	4.96546	0.81493	0.78792	1.7161	72.87	-0.2452	0.0259	0.2712	1514.7629	0.162435	-402.191608	-402.181674	-402.18073	-402.227245	34.361
C          0.22320        0.81490       -0.49210
N          1.13100       -0.04860        0.23310
C          0.64010       -0.78340        1.12630
O          1.42970       -1.58550        1.87240
C          0.77440       -2.51890        2.72710
C          0.56220       -3.87660        2.04160
C          1.87080       -4.51240        1.58610
O         -0.18360       -4.71980        2.91130
H          0.52640        1.86020       -0.36240
H          0.28620        0.59730       -1.56440
H         -0.83080        0.72140       -0.18190
H         -0.42900       -0.82910        1.39150
H          1.42240       -2.63730        3.60300
H         -0.19280       -2.12950        3.06810
H         -0.08720       -3.71920        1.17100
H          2.52190       -4.71160        2.44770
H          1.67870       -5.45850        1.07340
H          2.41040       -3.84300        0.91140
H          0.41990       -5.06110        3.58050
