15
gdb 20761	4.9982	1.40751	1.127	2.2258	63.1	-0.2488	-0.0149	0.234	1036.8023	0.119545	-395.986154	-395.978268	-395.977324	-396.019	27.504
C         -0.17540        1.43190        0.08530
C          0.00920       -0.04310       -0.00170
N          0.52440       -0.62430       -1.05300
O          0.50420       -1.98880       -0.71370
C         -0.02020       -2.06480        0.51210
C         -0.12640       -3.40460        1.16410
N         -1.26360       -3.42300        2.07930
N         -0.34620       -0.91200        1.01110
H          0.37820        1.83360        0.93930
H          0.17510        1.91260       -0.82900
H         -1.23200        1.67180        0.23710
H         -0.25970       -4.16120        0.38300
H          0.85190       -3.61250        1.63520
H         -1.19430       -4.22570        2.69560
H         -1.23610       -2.59040        2.66000
