20
gdb 14019	4.91539	1.14453	1.06662	1.9416	75.55	-0.2392	0.0721	0.3114	1187.4327	0.176555	-348.970041	-348.961579	-348.960635	-349.00332	31.09
C          0.27860        1.51510        0.21620
C         -0.19050        0.10260       -0.15060
C          0.55040       -0.47600       -1.33870
C          1.88340       -1.17220       -1.14840
C          0.66640       -1.95690       -1.53460
C         -0.02890       -3.08870       -0.78220
O         -0.23960       -3.80740       -2.01770
C          0.41910       -2.78190       -2.79350
H          1.34440        1.52290        0.46680
H          0.13040        2.20870       -0.61880
H         -0.27430        1.90610        1.07600
H         -0.06140       -0.56180        0.71370
H         -1.26780        0.11770       -0.36260
H          0.45440        0.10700       -2.25390
H          2.66040       -1.02940       -1.89320
H          2.25490       -1.28330       -0.13300
H          0.59730       -3.65540       -0.08010
H         -0.97720       -2.83410       -0.29010
H         -0.25290       -2.33570       -3.53940
H          1.31530       -3.16370       -3.30130
