15
gdb 1992	6.69202	1.6482	1.41819	3.7334	57.85	-0.2387	0.0552	0.2939	851.1394	0.125493	-341.85849	-341.850857	-341.849913	-341.890788	27.301
N         -0.21890        1.33970        0.13350
C         -0.19420       -0.03580        0.35590
O          0.57010       -0.55680        1.14430
N         -1.15620       -0.73290       -0.34200
C         -1.20850       -2.16150       -0.32620
C         -1.69020       -2.85660        0.91660
C         -2.56840       -2.81160       -0.30760
H          0.60940        1.79420        0.48670
H         -0.51110        1.67410       -0.77250
H         -1.70620       -0.25170       -1.03480
H         -0.42690       -2.66430       -0.89210
H         -1.21390       -3.79220        1.18470
H         -1.95660       -2.22540        1.75480
H         -3.43330       -2.15740       -0.28070
H         -2.70570       -3.71520       -0.89050
