16
gdb 7429	3.31377	1.70707	1.14299	8.7929	64.41	-0.2235	-0.0305	0.1931	1007.9659	0.129275	-417.091698	-417.082822	-417.081878	-417.125473	31.156
C         -0.13390        1.47710        0.20910
N         -0.11000        0.01460        0.07400
C         -0.05930       -0.75880        1.31370
C         -0.13210       -0.60830       -1.09140
N         -0.10990       -1.92440       -1.18190
H         -0.13370       -2.20090       -2.17170
H         -0.07530       -2.57440       -0.41560
C         -0.18780        0.05340       -2.58380
O         -0.21130        1.28000       -2.64110
O         -0.19640       -0.84920       -3.43130
H          0.76570        1.80430        0.74080
H         -0.17070        1.90780       -0.79110
H         -1.01340        1.77050        0.79170
H         -0.93750       -1.40870        1.40750
H          0.84670       -1.37500        1.35570
H         -0.04770       -0.07290        2.16000
