16
gdb 6350	4.18644	1.29358	1.00063	2.0059	64.26	-0.2498	-0.0091	0.2407	1148.0431	0.129689	-417.144421	-417.135188	-417.134244	-417.179763	30.857
C         -0.32420        1.29760       -0.51990
N         -0.84240       -0.05110       -0.42100
C         -1.30270       -0.54820        0.74520
O         -1.34800        0.02670        1.81620
N         -1.77770       -1.89150        0.67600
C         -1.83980       -2.75460       -0.39260
C         -2.41940       -4.11640       -0.05860
O         -1.46420       -2.46150       -1.51650
H          0.72320        1.29530       -0.84180
H         -0.90540        1.89220       -1.23350
H         -0.39190        1.75960        0.46530
H         -0.87660       -0.66980       -1.22390
H         -2.10850       -2.20600        1.57600
H         -2.42810       -4.72450       -0.96220
H         -1.81970       -4.61480        0.70990
H         -3.44010       -4.01970        0.32520
