15
gdb 9942	3.41539	1.51705	1.45691	3.559	63.15	-0.2463	0.0157	0.262	914.9622	0.119213	-395.958037	-395.949709	-395.948765	-395.990434	30.601
N          0.00760        1.40420        0.16950
C          0.02910       -0.03260        0.06180
C         -0.44470       -0.74300        1.29410
O         -0.82090        0.03960        2.36350
C         -1.35210       -0.73170        0.03980
N         -2.49360        0.14400        0.09020
C         -1.46690       -1.95770       -0.70100
N         -1.56140       -2.93910       -1.30960
H          0.70110        1.82740       -0.43330
H         -0.91770        1.74250       -0.09250
H          0.82450       -0.47120       -0.53020
H         -0.02030       -1.70320        1.56990
H         -0.51960        0.93940        2.13550
H         -3.08240        0.02880       -0.72560
H         -3.04500       -0.03080        0.92410
