19
gdb 15805	5.56091	1.00251	0.97246	3.3326	74.55	-0.2428	0.0351	0.2779	1290.4053	0.165346	-365.092764	-365.083742	-365.082797	-365.128199	32.037
C          0.37470        1.33490        0.16370
C         -0.33350        0.04100       -0.24470
N          0.27640       -0.60040       -1.39770
C          0.99870       -1.75660       -1.30790
O          1.14780       -2.36700       -0.25950
C          1.59280       -2.23120       -2.59770
C          2.93130       -2.94090       -2.51420
C          1.69490       -3.73170       -2.79410
H          1.41680        1.13640        0.43000
H          0.36450        2.07030       -0.64860
H         -0.12260        1.78620        1.02830
H         -0.28930       -0.69210        0.56320
H         -1.39090        0.23990       -0.45960
H          0.23090       -0.13040       -2.28710
H          1.40490       -1.62650       -3.47940
H          3.63830       -2.76870       -3.31760
H          3.35660       -3.02160       -1.52100
H          1.30060       -4.33710       -1.98670
H          1.53200       -4.11570       -3.79460
