22
gdb 17108	4.38415	1.42112	1.34727	0.0648	81.38	-0.289	0.0899	0.3788	1047.3853	0.203167	-313.068769	-313.061285	-313.06034	-313.100336	30.177
C         -0.03320        1.57580       -0.02000
C         -0.06350        0.04370       -0.03540
C          0.72330       -0.56570       -1.19890
C          2.28230       -0.38510       -1.13030
C          2.71590       -1.86030       -1.24620
C          1.77420       -2.38830       -2.36720
C          0.67960       -2.10950       -1.29620
C          1.74540       -2.56040       -0.25330
H          0.99020        1.95560        0.06940
H         -0.45750        1.98780       -0.94270
H         -0.61000        1.97690        0.81930
H          0.32490       -0.33750        0.91740
H         -1.10640       -0.29520       -0.09590
H          0.33490       -0.13420       -2.13060
H          2.67560        0.23260       -1.94300
H          2.60570        0.06330       -0.18460
H          3.78690       -2.06770       -1.24670
H          1.72700       -1.83130       -3.30880
H          1.91060       -3.45410       -2.56620
H         -0.30770       -2.57170       -1.34800
H          1.87420       -3.64540       -0.23550
H          1.68150       -2.17740        0.76920
