20
gdb 13146	3.73583	1.28457	1.05	1.4122	71.41	-0.244	0.0702	0.3142	1177.7523	0.175783	-386.109533	-386.100336	-386.099392	-386.144426	32.076
C          0.07600        1.35400        0.60740
O         -0.01390       -0.02900        0.85360
C          1.08630       -0.75140        0.34500
C          0.85640       -2.22360        0.63900
O          1.93660       -3.02840        0.11750
C          2.21250       -3.59240        1.41790
C          1.08240       -2.76920        2.07700
C          1.46540       -1.80520        3.19160
H          0.11530        1.57370       -0.47120
H         -0.81590        1.82190        1.03130
H          0.96810        1.79610        1.07890
H          1.17920       -0.62060       -0.74660
H          2.03100       -0.40350        0.79270
H         -0.10890       -2.51640        0.20520
H          2.08540       -4.68190        1.42560
H          3.22870       -3.35270        1.75850
H          0.24530       -3.39180        2.40240
H          2.36050       -1.22760        2.93880
H          0.65530       -1.09840        3.39150
H          1.67950       -2.35290        4.11550
