17
gdb 9303	5.86629	0.89607	0.8386	5.0998	74.26	-0.2566	-0.0387	0.2179	1374.0942	0.141318	-360.058962	-360.049657	-360.048713	-360.0934	32.618
C         -0.24550        1.39480        0.28200
C         -0.27240       -0.11470        0.03160
C          0.74430       -0.55200       -1.03780
N          0.77870       -1.99780       -1.18630
C          0.01970       -2.55310       -2.04510
N         -0.85100       -1.97480       -2.95310
C          0.08470       -4.00150       -2.15960
N          0.10330       -5.15170       -2.27120
H          0.74290        1.72070        0.62320
H         -0.48220        1.95710       -0.62830
H         -0.97270        1.68040        1.04760
H         -0.05260       -0.65910        0.95610
H         -1.28020       -0.42680       -0.27260
H          0.53840       -0.02770       -1.98600
H          1.74390       -0.23420       -0.72130
H         -1.19220       -1.05040       -2.74680
H         -1.51870       -2.58110       -3.40180
