11
gdb 164	9.60877	6.57366	5.00982	1.8518	41.8	-0.2517	0.0951	0.3468	317.7261	0.091787	-231.102112	-231.097923	-231.096979	-231.128841	15.427
C         -0.03930        1.51040        0.05350
C          1.53240        1.53070        0.03600
C          1.50080        0.00160       -0.10590
O          0.78390       -0.51230        1.02160
C          0.02860       -0.01750       -0.08930
H         -0.53180        1.86760        0.96070
H         -0.47100        2.00820       -0.81800
H          1.93160        2.03930       -0.84470
H          2.03560        1.90070        0.93210
H          2.21700       -0.66030       -0.57920
H         -0.68070       -0.69790       -0.54640
