14
gdb 9000	4.73977	0.90356	0.77851	1.9732	60.45	-0.2584	-0.107	0.1514	1343.942	0.102889	-419.702211	-419.693394	-419.692449	-419.737736	28.542
O         -0.56890        0.34110       -0.09640
C         -0.06650        1.42030        0.07340
C          1.37290        1.76590       -0.23490
C          1.47960        3.00240       -1.13210
C          2.88350        3.56030       -1.20320
O          3.80790        3.19700       -0.51520
C          3.13330        4.68270       -2.22220
O          2.28510        5.10380       -2.96270
H         -0.65840        2.26930        0.49270
H          1.88260        1.97720        0.71480
H          1.86050        0.89760       -0.68430
H          1.13240        2.80630       -2.15310
H          0.83080        3.81560       -0.77290
H          4.17710        5.05940       -2.20050
