22
gdb 14017	4.92316	1.1294	1.05911	0.1125	83.1	-0.2523	0.0922	0.3444	1237.2998	0.200261	-313.052603	-313.043872	-313.042928	-313.086115	32.926
C         -0.02790        1.52900       -0.56180
C         -0.04450        0.19720        0.19740
C         -1.40880       -0.46210        0.20850
C         -1.85410       -1.32510       -0.95490
C         -1.55570       -1.94440        0.38330
C         -0.46880       -2.99720        0.65750
C         -1.57840       -3.92280        1.23890
C         -2.56120       -2.71440        1.25250
H          0.96910        1.98090       -0.55290
H         -0.32720        1.38900       -1.60580
H         -0.72330        2.24700       -0.11320
H          0.68350       -0.49010       -0.25150
H          0.29170        0.36170        1.23020
H         -2.19160        0.14050        0.66800
H         -2.88860       -1.26930       -1.28010
H         -1.14270       -1.49160       -1.75990
H          0.08640       -3.37640       -0.20480
H          0.25200       -2.67620        1.41710
H         -1.88420       -4.69700        0.53090
H         -1.36860       -4.39660        2.20030
H         -2.68070       -2.27870        2.25030
H         -3.55520       -2.88230        0.82810
