20
gdb 10626	2.46596	1.71823	1.23862	0.8715	82.11	-0.236	0.0574	0.2934	1086.9273	0.174738	-311.833738	-311.824345	-311.823401	-311.867276	35.107
C         -0.35320        1.53630        0.13550
C          0.16750        0.11100       -0.07750
C          0.80680       -0.48440        1.17600
C         -0.09650       -1.10670        2.23840
C          0.80400       -1.99520        1.42830
C          0.26070       -2.99950        0.43590
C          1.97020        0.22440        1.64510
C          2.94770        0.81990        2.01830
H          0.45510        2.20440        0.44610
H         -0.78910        1.93350       -0.78630
H         -1.12430        1.56110        0.91270
H         -0.65650       -0.53240       -0.40070
H          0.90510        0.10570       -0.88910
H          0.13740       -0.92440        3.28050
H         -1.15830       -1.12440        2.00990
H          1.69310       -2.33790        1.94980
H         -0.67200       -2.66680       -0.02660
H          0.98030       -3.20140       -0.36500
H          0.05110       -3.94920        0.94060
H          3.80880        1.34280        2.35310
