18
gdb 16520	3.57131	2.35543	1.81218	1.6657	70.33	-0.2349	0.0956	0.3305	791.2946	0.155577	-347.77985	-347.773273	-347.772329	-347.810088	26.756
C         -0.02030        1.44540        0.04040
C          0.00480       -0.06240       -0.01190
C          0.99330       -0.74970       -0.95560
O          0.39630       -1.99990       -1.31210
C         -0.63380       -2.23790       -0.36530
C         -0.07310       -2.32210        1.09290
C         -0.40100       -0.83490        1.23900
C         -1.26290       -0.86560       -0.01990
H          0.93230        1.84710        0.40480
H         -0.20420        1.87360       -0.95140
H         -0.80650        1.80490        0.71160
H          1.14780       -0.16350       -1.87020
H          1.97490       -0.91280       -0.48780
H         -1.25420       -3.05750       -0.72500
H         -0.71240       -2.93570        1.73410
H          0.96630       -2.65230        1.19400
H         -0.59100       -0.30980        2.16860
H         -2.25610       -0.48960       -0.22690
