15
gdb 13751	3.66144	1.40313	1.18342	5.0902	63.87	-0.2451	-0.0455	0.1996	1026.1487	0.116363	-399.794802	-399.78639	-399.785446	-399.829552	28.882
C          0.37870        1.58720        0.04790
C         -0.56640        0.41170       -0.09020
O         -1.38360        0.12790        0.75370
C         -0.42740       -0.38960       -1.36320
N         -0.44680       -1.85210       -1.22590
C         -1.56500       -1.21410       -1.91770
C         -2.90430       -1.31180       -1.24530
O         -3.92810       -1.05730       -1.82920
H          1.41940        1.24520        0.00240
H          0.23760        2.28520       -0.78590
H          0.19850        2.10050        0.99240
H          0.24260        0.03530       -2.10830
H          0.19680       -2.27540       -1.88910
H         -1.62210       -1.24930       -3.00400
H         -2.87220       -1.65740       -0.19780
