15
gdb 15018	2.75121	1.82986	1.25824	1.5896	71.73	-0.2477	0.0235	0.2712	967.1181	0.116887	-325.41802	-325.409805	-325.408861	-325.450671	30.283
C          0.05800       -1.19300       -0.18230
C          0.04970        0.00280       -0.07650
C          0.00230        1.46580        0.04290
C          1.35320        2.03230        0.11750
C          2.45560        2.50860        0.15710
C         -0.83310        2.07670       -1.09970
C         -0.68030        3.49740       -1.48550
N         -0.23500        2.41690       -2.38840
H          0.07360       -2.25080       -0.27610
H         -0.51950        1.70880        0.98100
H          3.43480        2.91710        0.21070
H         -1.81150        1.60860       -1.17410
H         -1.54370        4.05930       -1.82930
H          0.07790        4.08150       -0.97210
H          0.77820        2.32880       -2.32640
