20
gdb 18580	3.62529	1.90885	1.5391	0.1574	79.44	-0.2328	0.0267	0.2595	911.1883	0.179259	-311.877633	-311.870483	-311.869539	-311.908744	28.771
C         -1.01640        1.16980       -0.00610
C         -0.08650       -0.03400       -0.02770
C          1.17950        0.01340       -0.93130
C          2.02710       -0.61470        0.21350
C          3.24320        0.19610        0.70110
C          2.62960        1.14550        1.70710
C          1.35180        0.86550        1.97100
C          0.84390       -0.32310        1.19870
H         -0.46790        2.08840        0.22830
H         -1.49960        1.30880       -0.97990
H         -1.80850        1.05270        0.74250
H         -0.66510       -0.93790       -0.24980
H          1.13090       -0.54090       -1.87210
H          1.49140        1.03920       -1.15370
H          2.24760       -1.67090        0.04970
H          4.01100       -0.43450        1.17100
H          3.74280        0.72270       -0.12320
H          3.19580        1.94960        2.16620
H          0.73440        1.41200        2.67660
H          0.49740       -1.12440        1.86140
