20
gdb 9690	3.27112	1.34198	1.12113	1.5842	72.29	-0.2416	0.0688	0.3105	1145.436	0.174701	-386.111048	-386.1015	-386.100555	-386.145018	34.625
C         -0.28040        1.10210       -0.64960
O         -0.31290        0.18460        0.42430
C         -1.36330       -0.72390        0.32710
C         -1.20780       -1.96610       -0.52620
C         -1.20000       -2.05600        0.99210
C          0.11150       -2.37650        1.68100
C         -2.41180       -2.64490        1.70430
O         -3.65510       -2.37580        1.07420
H          0.56730        1.77000       -0.47840
H         -0.15010        0.59290       -1.61560
H         -1.20220        1.70140       -0.69750
H         -2.35690       -0.27550        0.35430
H         -2.07090       -2.31130       -1.08700
H         -0.25630       -2.10950       -1.02760
H          0.94170       -1.85120        1.20660
H          0.08550       -2.06790        2.73280
H          0.31620       -3.45300        1.65340
H         -2.26390       -3.72860        1.83750
H         -2.48550       -2.20540        2.70640
H         -3.72780       -2.95150        0.30730
