24
gdb 15827	3.78478	0.97695	0.83081	0.0418	85.88	-0.2703	0.0916	0.3619	1487.871	0.222462	-314.270722	-314.260768	-314.259824	-314.305735	36.687
C         -0.07230        1.53570       -0.24440
C         -0.00060        0.02770        0.01440
C         -1.38310       -0.63540        0.04120
C         -1.37600       -2.16810        0.20040
C         -0.78640       -2.62070        1.54510
C         -2.77760       -2.72750        0.02050
C         -3.34540       -2.96390       -1.35530
C         -2.99090       -4.13620       -0.47070
H          0.92470        1.98740       -0.26180
H         -0.55270        1.75030       -1.20560
H         -0.65340        2.04330        0.53380
H          0.61300       -0.44770       -0.76300
H          0.52040       -0.14930        0.96280
H         -1.98090       -0.19490        0.85280
H         -1.91140       -0.38810       -0.88910
H         -0.74980       -2.58510       -0.60330
H         -1.35990       -2.20170        2.38110
H         -0.81780       -3.71090        1.63500
H          0.25390       -2.30480        1.66470
H         -3.48720       -2.37870        0.76890
H         -4.39340       -2.74850       -1.53230
H         -2.70380       -2.76550       -2.20830
H         -2.11330       -4.71830       -0.73470
H         -3.79690       -4.72230       -0.04260
