18
gdb 16140	3.80059	1.6989	1.42499	3.1339	72.66	-0.2442	-0.0129	0.2313	921.8844	0.155307	-347.826938	-347.819796	-347.818851	-347.858189	27.771
O         -0.32550        0.14260        0.20680
C         -0.06860        1.31020        0.03140
C          1.29130        1.86940       -0.05910
C          1.48500        3.33610        0.30910
C          1.59770        2.93990       -1.12360
C          2.97310        2.62310       -1.69440
C          3.65150        1.72140       -0.63750
C          2.49830        0.95050        0.04520
H         -0.88230        2.06560       -0.08560
H          0.59590        3.88370        0.60590
H          2.37380        3.59470        0.87460
H          0.81420        3.26130       -1.80180
H          2.84740        2.08240       -2.63950
H          3.55770        3.52320       -1.91280
H          4.39610        1.05380       -1.07790
H          4.18120        2.33740        0.09640
H          2.73370        0.67470        1.07770
H          2.26680        0.02170       -0.48630
