20
gdb 6021	2.57553	1.70831	1.37788	1.2628	76.43	-0.251	0.0517	0.3027	1019.2065	0.173101	-348.97823	-348.968169	-348.967225	-349.011986	37.768
C         -0.15460        1.53680       -0.08460
C         -0.01250        0.01810       -0.01090
O          0.55850       -0.50200       -1.20710
C          0.76490       -0.50850        1.24830
C          0.73330       -2.05440        1.22870
C          2.23300       -0.02610        1.24280
C          0.09250       -0.03240        2.46010
C         -0.46570        0.34500        3.45680
H          0.82130        2.02520       -0.19370
H         -0.76370        1.80590       -0.95190
H         -0.62850        1.93310        0.81600
H         -1.01360       -0.42570        0.03700
H          1.29980        0.06170       -1.45110
H          1.17720       -2.41750        0.29930
H          1.28870       -2.46220        2.07750
H         -0.29540       -2.42170        1.28790
H          2.30580        1.06260        1.30360
H          2.77100       -0.44270        2.09820
H          2.73620       -0.36670        0.33220
H         -0.95670        0.67840        4.33740
