10
gdb 735	9.67338	3.72795	2.73673	1.8949	43.55	-0.2874	-0.0235	0.2639	457.4821	0.074104	-301.359287	-301.354167	-301.353223	-301.388116	17.122
C          0.00820        1.48030       -0.01890
C         -0.05810       -0.00360        0.00960
N         -1.01280       -0.78170       -0.41100
C         -0.50830       -2.02600       -0.12260
N          0.66960       -2.03750        0.43530
O          0.98080       -0.67380        0.52810
H          0.87020        1.81610       -0.60310
H         -0.90560        1.87090       -0.46570
H          0.11750        1.88070        0.99330
H         -1.03510       -2.94500       -0.33520
