18
gdb 19592	4.06345	1.95669	1.80896	1.6729	70.08	-0.2455	0.0757	0.3212	803.4624	0.156237	-347.753069	-347.746689	-347.745745	-347.783056	26.952
O          0.14410        1.45540       -0.10420
C          0.08000        0.04910       -0.05400
C          0.19810       -0.61520        1.35270
C         -1.32460       -0.25700        1.51950
C         -1.34080       -0.59400       -0.01700
C         -1.05910       -2.10700        0.04600
C          0.29320       -2.66230       -0.33540
C          0.07960       -2.12270        1.05950
H         -0.44270        1.82790        0.56080
H          0.76880       -0.27280       -0.83280
H          0.95770       -0.28980        2.06420
H         -1.91860       -0.89710        2.17690
H         -1.53060        0.78950        1.76710
H         -2.13050       -0.24730       -0.68440
H         -1.90490       -2.78170        0.11800
H          0.33510       -3.74570       -0.39920
H          0.94040       -2.17730       -1.05510
H          0.09570       -2.80920        1.89860
