16
gdb 16377	2.67006	2.11564	1.41682	2.8053	60.64	-0.2469	0.05	0.2969	888.5662	0.12895	-420.830281	-420.822366	-420.821421	-420.862361	29.609
O          0.57150        0.77640       -0.87780
C          0.11110       -0.25920       -0.05120
C          0.12420       -0.09080        1.50090
C         -1.26750       -0.79720        1.56370
O         -2.29040       -0.22070        2.33910
C         -1.39360       -0.53240        0.06640
C         -2.48720        0.15830       -0.61760
O         -2.20990       -1.23320       -0.84410
H          0.12340        1.58740       -0.61420
H          0.65150       -1.15670       -0.36660
H          0.95480       -0.53470        2.05160
H          0.01620        0.96150        1.78190
H         -1.16600       -1.87290        1.76150
H         -2.20940       -0.54160        3.24240
H         -3.40340        0.36960       -0.07120
H         -2.26220        0.81410       -1.45750
