16
gdb 7620	5.28496	1.18585	1.09568	3.6468	66.48	-0.2478	-0.0249	0.2229	1083.8516	0.127869	-383.771538	-383.763268	-383.762324	-383.805496	29.234
C          0.13320        1.60630       -0.25270
C         -0.07250        0.14450        0.08980
O         -0.27220       -0.23140        1.22300
C          0.02410       -0.84190       -1.06220
C          1.43440       -1.53440       -1.19480
C          0.68440       -2.87710       -1.27150
O          0.99920       -3.97020       -1.63780
C         -0.63220       -2.23340       -0.83060
H          1.05470        1.74140       -0.83010
H         -0.69020        1.95470       -0.88760
H          0.16990        2.20560        0.65750
H         -0.27010       -0.37690       -2.00550
H          2.05980       -1.27240       -2.05090
H          2.02670       -1.45780       -0.27680
H         -0.81540       -2.38830        0.23870
H         -1.52830       -2.49280       -1.39800
