19
gdb 20134	5.52272	1.38172	1.23186	0.8051	76.21	-0.2299	0.0911	0.321	1027.481	0.166559	-327.85986	-327.852702	-327.851758	-327.891351	28.08
C          0.13720        1.49730        0.08090
C          1.44030        0.75290       -0.00180
C          1.72500        0.04260        1.32630
C          0.36020       -0.71190        1.19740
C          0.11080        0.00980       -0.13340
N          0.54890       -2.14260        1.03150
C          0.45320       -2.94550        2.24710
C         -0.63520       -2.97350        1.23150
H         -0.19450        1.92570        1.02530
H         -0.11840        2.09440       -0.78870
H          2.17510        0.97400       -0.76610
H          2.54870       -0.67070        1.26240
H          1.86370        0.68300        2.20400
H         -0.38110       -0.48730        1.98610
H         -0.34230       -0.44770       -1.00420
H          1.15600       -3.76960        2.32780
H          0.24430       -2.43040        3.18360
H         -1.56940       -2.47800        1.49190
H         -0.74060       -3.81810        0.55660
