15
gdb 14259	4.06181	1.79733	1.60188	1.6613	61.82	-0.2654	0.0166	0.282	823.4852	0.119878	-399.776813	-399.770131	-399.769187	-399.807749	25.839
O          0.50190        1.01570       -0.67460
C          0.08820       -0.17600       -0.07700
C          0.23040       -0.35730        1.47530
C         -1.30030       -0.66830        1.57590
C         -1.43770       -0.39310        0.05190
O         -2.10480        0.87750        0.34980
C         -2.10560        0.59750        1.71810
N         -2.61640        1.22930        2.66910
H         -0.13590        1.69330       -0.41460
H          0.56770       -0.99600       -0.61980
H          0.86960       -1.19390        1.76250
H          0.54980        0.53400        2.01850
H         -1.63080       -1.56230        2.09740
H         -2.00260       -0.97570       -0.67480
H         -3.09030        2.07590        2.35020
