11
gdb 23792	4.15359	1.87912	1.29379	3.8983	58.5	-0.234	-0.0667	0.1673	823.7703	0.07245	-434.831863	-434.825488	-434.824544	-434.862822	23.329
F          0.08740        0.03360        0.00170
C         -0.07130        1.34490        0.01130
C         -1.24700        1.98070        0.03070
C         -1.21440        3.43450        0.03850
N         -2.27080        4.15060        0.05670
N          0.08550        4.06040        0.02440
N          1.15530        3.40870        0.00640
N          1.10400        2.04190       -0.00060
H         -2.18750        1.44970        0.04030
H         -2.00250        5.13680        0.05870
H          2.00020        1.58220       -0.01530
