20
gdb 7220	3.45003	1.09155	0.87123	1.9371	80.23	-0.2481	0.0402	0.2883	1377.2431	0.173544	-348.987478	-348.976827	-348.975883	-349.02455	36.855
C         -0.08820        1.49490        0.02980
C         -0.01590        0.04080        0.01270
C          0.05110       -1.16240        0.01790
C          0.06960       -2.62790       -0.01750
O         -1.25310       -3.15400        0.11330
C          0.78750       -3.17850       -1.27710
C          2.23160       -2.67090       -1.36320
C          0.73110       -4.71040       -1.29340
H          0.76870        1.92600        0.55920
H         -0.09400        1.90910       -0.98440
H         -0.99640        1.84030        0.53580
H          0.60360       -3.00510        0.86560
H         -1.81400       -2.66330       -0.49750
H          0.23260       -2.79670       -2.14630
H          2.81750       -3.01450       -0.50180
H          2.72020       -3.05140       -2.26560
H          2.27430       -1.57900       -1.38500
H         -0.29700       -5.06630       -1.20430
H          1.16060       -5.10300       -2.22050
H          1.30550       -5.12910       -0.45790
