15
gdb 19776	3.10552	2.72782	1.78793	4.1487	63.92	-0.2484	-0.0133	0.2351	744.1494	0.120927	-362.646329	-362.640304	-362.63936	-362.676303	24.132
O         -0.02810        0.00270        0.09470
C         -0.04970        1.20080        0.03380
C         -1.27820        2.08310       -0.03650
C         -1.55180        2.90820        1.20850
C         -0.78660        3.51020        0.06780
C          0.73150        3.42190        0.05730
C          1.50450        2.79220        1.16080
N          1.13860        2.01440       -0.04580
H         -2.11140        1.75220       -0.64370
H         -2.57820        3.23430        1.33630
H         -1.05590        2.66320        2.14000
H         -1.23720        4.31130       -0.50420
H          1.24590        4.10470       -0.61300
H          2.56780        2.99290        1.25910
H          1.00990        2.54990        2.09530
