17
gdb 1659	4.70923	1.7022	1.34704	2.8996	60.84	-0.2611	-0.0237	0.2374	921.8894	0.145785	-346.883127	-346.874562	-346.873618	-346.916362	30.113
C          0.02330        1.53050       -0.05160
C         -0.13500        0.04040        0.24810
C         -1.55780       -0.45880        0.09160
O         -2.50300        0.29510       -0.02130
C         -1.81350       -1.97030        0.06020
C         -1.28840       -2.68160        1.31550
O         -3.18490       -2.21500       -0.09710
H          1.05540        1.84900        0.11680
H         -0.24000        1.75170       -1.08960
H         -0.63460        2.12540        0.58560
H          0.52160       -0.57190       -0.38300
H          0.17340       -0.18110        1.27950
H         -1.25850       -2.35770       -0.81400
H         -1.74490       -2.25800        2.21530
H         -1.56150       -3.73820        1.26190
H         -0.19990       -2.61080        1.39880
H         -3.59190       -1.33590       -0.16840
