18
gdb 16343	3.03879	1.9256	1.47393	1.1442	68.18	-0.2408	0.0737	0.3145	917.0969	0.152636	-384.893394	-384.885165	-384.88422	-384.925916	30.628
C          0.00680        1.34750        0.27450
O         -0.02060        0.01850       -0.22840
C         -1.26450       -0.56620       -0.14430
C         -1.82190       -1.09610        1.14980
C         -1.59650       -2.04540       -0.00550
C         -2.75560       -1.90080       -0.99800
C         -2.35670       -0.39190       -1.19130
O         -3.29510        0.61980       -0.88960
H          1.02640        1.71620        0.14180
H         -0.68930        1.99870       -0.26950
H         -0.25330        1.37500        1.34170
H         -1.08080       -1.16150        1.94000
H         -2.82840       -0.85170        1.47830
H         -0.91560       -2.88370        0.06270
H         -2.64900       -2.49030       -1.91130
H         -3.75340       -2.05900       -0.57650
H         -1.90440       -0.23640       -2.18000
H         -3.93960        0.65810       -1.60350
