22
gdb 6630	5.66203	0.67233	0.62885	0.1364	88.15	-0.2388	0.0644	0.3032	1864.7697	0.197499	-313.062367	-313.051537	-313.050593	-313.100213	37.344
C         -0.02540        1.53280       -0.05380
C          0.00380        0.07680       -0.04240
C          0.03880       -1.12700       -0.03400
C          0.04460       -2.58620       -0.02010
C         -1.37040       -3.18990        0.10310
C         -1.41590       -4.72640        0.03220
C         -0.68890       -5.39380        1.20870
C         -2.87010       -5.21120       -0.04570
H          0.56010        1.95150        0.77250
H          0.38740        1.93400       -0.98640
H         -1.04880        1.91250        0.04280
H          0.51660       -2.96120       -0.93900
H          0.67530       -2.93720        0.80600
H         -1.82170       -2.85140        1.04480
H         -1.99020       -2.77420       -0.69980
H         -0.90990       -5.03240       -0.89570
H          0.37220       -5.13030        1.24520
H         -1.13980       -5.09700        2.16350
H         -0.75260       -6.48480        1.13800
H         -3.39040       -4.77780       -0.90620
H         -2.92060       -6.30140       -0.13570
H         -3.42570       -4.92730        0.85620
