17
gdb 14371	4.19089	2.16981	1.87922	1.2773	67.82	-0.2365	0.0603	0.2968	761.1501	0.144868	-363.754458	-363.748427	-363.747483	-363.784579	24.702
C          0.05280        1.60240        0.13180
N          1.54280        1.24660        0.11140
C          1.13350        0.03630        0.99440
C          0.04980        0.07020       -0.11540
O         -0.97120       -0.68970       -0.67520
C         -0.81640       -0.49770       -2.11290
C          0.40670        0.46920       -2.38810
C          1.17590        0.27210       -1.08300
H         -0.28800        1.96800        1.10300
H         -0.25380        2.27670       -0.66790
H          1.85770       -0.78110        0.98210
H          0.85990        0.33270        2.00920
H         -0.64940       -1.48160       -2.56440
H         -1.74980       -0.08890       -2.51110
H          0.96300        0.15540       -3.27350
H          0.05950        1.48900       -2.55820
H          1.92330       -0.52160       -1.15660
