20
gdb 18716	3.09484	2.07809	1.43911	1.7369	73.95	-0.2566	0.0826	0.3392	932.1291	0.179064	-349.013386	-349.005926	-349.004982	-349.044792	29.443
C         -0.05520        1.54250        0.05620
C          0.03280        0.01130        0.00770
C          0.68840       -0.48940       -1.29110
C          0.88590       -2.00910       -1.27040
C          1.85280       -2.45100       -0.15790
C          1.63760       -1.70480        1.14760
O          2.18830       -0.37960        1.22000
C          0.76360       -0.52160        1.22540
H          0.94670        1.98390        0.05870
H         -0.59640        1.93180       -0.81230
H         -0.57530        1.88510        0.95710
H         -0.98840       -0.39720        0.05420
H          0.06350       -0.19890       -2.14300
H          1.65630        0.00950       -1.41990
H         -0.08910       -2.49010       -1.11400
H          1.25250       -2.36260       -2.24010
H          1.75090       -3.52680        0.02300
H          2.89150       -2.28460       -0.46900
H          1.79580       -2.28220        2.05940
H          0.30050       -0.28380        2.18580
