18
gdb 12633	3.30152	1.82981	1.34614	1.3668	68.22	-0.2577	0.0011	0.2588	930.9706	0.153999	-384.943979	-384.935955	-384.935011	-384.976076	31.079
C         -0.06280        1.51750        0.00790
C          0.01490       -0.01230        0.00480
C          0.87910       -0.55620       -1.18310
O          0.94690        0.27470       -2.33270
C          2.21580       -0.84170       -0.53990
C          2.13950       -0.84840        0.78930
C          0.73790       -0.56850        1.27810
O          0.67330        0.25090        2.43620
H          0.93160        1.98030        0.06730
H         -0.54040        1.87640       -0.90660
H         -0.64210        1.86750        0.86540
H         -1.00420       -0.40450       -0.05570
H          0.43910       -1.48740       -1.56190
H          1.43920        1.06730       -2.09440
H          3.09570       -1.05800       -1.13650
H          2.94550       -1.07110        1.48040
H          0.25800       -1.50320        1.59490
H          1.18910        1.04550        2.26370
