18
gdb 12925	3.40569	1.56326	1.29468	1.1318	67.94	-0.2246	0.0628	0.2874	1008.3019	0.152681	-384.889641	-384.881543	-384.880599	-384.922152	30.471
C         -0.02600        1.46790       -0.20840
C          0.01990       -0.00930        0.19970
C         -1.34920       -0.65580        0.16510
C         -1.95330       -1.29960       -1.06430
O         -0.94590       -1.97100       -1.83310
C         -0.66910       -2.88140       -0.73630
C         -1.64340       -2.13220        0.17070
O         -2.40600       -2.69470        1.17160
H          0.97130        1.91730       -0.17900
H         -0.41560        1.58020       -1.22540
H         -0.67210        2.04620        0.46140
H          0.68970       -0.54880       -0.47740
H          0.44240       -0.10370        1.20790
H         -2.11680       -0.13620        0.73930
H         -2.85930       -0.99130       -1.57310
H         -1.01090       -3.89530       -0.98470
H          0.39090       -2.90820       -0.45980
H         -2.90920       -3.42770        0.79790
