17
gdb 1727	4.27013	2.09355	1.88016	2.2653	59.99	-0.2482	0.0626	0.3108	756.2771	0.147982	-346.839895	-346.832442	-346.831497	-346.870982	28.276
O          0.00190        1.29040       -0.29920
C         -0.05900       -0.12250       -0.11240
C         -1.52430       -0.46290        0.12940
O         -1.99470        0.26160        1.24210
C         -2.39010       -0.41970       -1.17010
C         -2.25520       -1.96430       -1.26640
C         -1.79000       -1.98350        0.21630
H          0.91970        1.57010       -0.24590
H          0.32730       -0.65900       -0.99150
H          0.52570       -0.42960        0.76720
H         -1.63520        1.15350        1.14720
H         -3.40830       -0.11250       -0.92080
H         -2.02290        0.18760       -2.00060
H         -3.15850       -2.52770       -1.50770
H         -1.46490       -2.27410       -1.95540
H         -0.94910       -2.62850        0.48880
H         -2.61600       -2.17010        0.90660
