11
gdb 3968	5.31904	1.61727	1.24019	3.5253	61.38	-0.2438	-0.0741	0.1697	864.7768	0.071577	-430.598508	-430.592081	-430.591137	-430.629233	23.658
O         -0.07990        1.34200        0.11370
N          0.05140       -0.04120        0.07070
C         -1.09410       -0.62080       -0.05780
C         -2.40320        0.00150       -0.15340
N         -3.49490       -0.66180       -0.28030
O         -3.42980       -2.04290       -0.32930
N         -2.22570       -2.74350       -0.24640
C         -1.14550       -2.06440       -0.12000
H          0.83180        1.63850        0.20940
H         -2.51270        1.07870       -0.12060
H         -0.22890       -2.64390       -0.05880
