13
gdb 2653	6.67807	1.25977	1.1124	3.2336	58.72	-0.27	-0.0036	0.2665	1016.6451	0.100151	-340.631134	-340.623369	-340.622425	-340.664052	25.46
C         -0.37730        0.92910       -0.11070
N          0.77620        0.06890        0.05500
C          0.72810       -0.80830        0.94660
O          1.79810       -1.63050        1.14590
C          1.64480       -2.61020        2.15390
C          0.76540       -3.71910        1.74670
N          0.06670       -4.58370        1.43330
H         -0.07380        1.97320        0.02160
H         -0.75580        0.83350       -1.13400
H         -1.20170        0.71350        0.58730
H         -0.12000       -0.99430        1.62280
H          2.64510       -3.00170        2.35380
H          1.25900       -2.17760        3.08660
