16
gdb 17184	3.72471	2.18823	1.66065	2.9736	64.37	-0.2366	0.0486	0.2852	787.68	0.13202	-379.792509	-379.785881	-379.784937	-379.823487	25.841
O          0.43520        0.41150        0.83840
C         -0.21730        0.28320       -0.41220
C         -1.54340       -0.40380       -0.26040
N         -2.56550       -0.64210       -1.33190
C         -3.18070       -1.24720       -0.10220
C         -1.80760       -1.80440        0.37730
N         -1.86110       -1.21790        1.75850
C         -2.57560       -0.20840        0.90450
H          0.00050       -0.18600        1.46530
H         -0.36420        1.28810       -0.83420
H          0.40110       -0.27870       -1.13010
H         -3.03850        0.23500       -1.56740
H         -4.15900       -1.73120       -0.09710
H         -1.33160       -2.75470        0.13770
H         -2.51630       -1.73180        2.35200
H         -3.00250        0.71660        1.29640
