14
gdb 15306	4.65898	1.08595	0.95026	4.3502	63.81	-0.2586	-0.0372	0.2215	1151.6788	0.106256	-378.709965	-378.702016	-378.701072	-378.74358	27.196
O         -0.49780        0.24900        0.05060
C          0.01510        1.33540        0.11210
C          1.43340        1.64270       -0.33420
C          1.45650        2.78620       -1.32670
N          1.23720        4.12960       -0.78730
C          2.55660        3.80500       -1.36230
C          3.66760        3.74790       -0.44290
N          4.57000        3.68150        0.27650
H         -0.53370        2.21600        0.51300
H          2.01020        1.93050        0.55380
H          1.87690        0.73990       -0.76270
H          1.02350        2.55940       -2.29960
H          0.71610        4.71470       -1.43470
H          2.81380        4.21560       -2.33480
