16
gdb 8470	2.99997	2.08381	1.57492	2.9552	67.63	-0.2173	0.0157	0.233	858.1128	0.12966	-379.882661	-379.874788	-379.873844	-379.91443	29.916
C         -0.06780        1.46680        0.10880
C          0.05840       -0.01730        0.02510
C          1.23080       -0.81960       -0.45750
C          0.70220       -1.10300        0.92660
O          1.53350       -1.10140        2.01740
C         -0.63860       -1.76140        0.88690
N         -1.14150       -2.60800        1.67660
N         -1.14070       -0.90970       -0.15430
H          0.89100        1.91320        0.38730
H         -0.37120        1.89670       -0.85350
H         -0.80960        1.76270        0.86010
H          1.11820       -1.53260       -1.27020
H          2.18300       -0.29670       -0.42230
H          0.98430       -1.28780        2.78960
H         -2.13390       -2.76220        1.48870
H         -2.03280       -0.47810        0.07010
