16
gdb 9718	3.77239	1.6285	1.56599	3.0102	67.04	-0.2338	-0.0347	0.1991	885.3362	0.128584	-383.753667	-383.74575	-383.744806	-383.786243	28.557
C          0.14290        1.54310       -0.16230
C         -0.04220        0.02820       -0.07100
O          0.63030       -0.64050       -1.14400
C          1.57210       -1.59070       -0.64510
C          1.44580       -1.51110        0.84930
C          0.54150       -0.59650        1.17880
C         -1.52930       -0.35410       -0.15050
O         -2.43340        0.31680        0.27090
H          1.18790        1.80960        0.01260
H         -0.14970        1.89360       -1.15580
H         -0.49020        2.03990        0.57660
H          1.33570       -2.59090       -1.03780
H          2.58500       -1.33710       -0.99480
H          2.03870       -2.11100        1.52810
H          0.22680       -0.30290        2.17140
H         -1.68910       -1.34700       -0.62730
