18
gdb 17522	4.50774	1.78716	1.64353	0.8116	70.85	-0.2322	0.086	0.3182	855.8078	0.154249	-347.741619	-347.734597	-347.733653	-347.772694	27.672
C          0.00440        1.36760        0.02220
O          0.02100       -0.04640       -0.01950
C         -1.23590       -0.61530        2.65550
C         -2.15720       -0.54930        1.25960
C         -2.69410       -1.89510        0.77450
C         -2.73830       -1.85020       -0.76270
C         -2.22780       -0.47770       -1.19870
C         -1.45530       -2.17810       -0.03930
H          1.04420        1.70050        0.00280
H         -0.52250        1.79410       -0.84340
H         -0.47240        1.74200        0.93950
H         -1.56880       -0.66440        2.17430
H         -2.84780        0.29660        1.35560
H         -3.29410       -2.60620        1.32680
H         -3.37030       -2.52900       -1.32000
H         -2.92130        0.37130       -1.20550
H         -1.69310       -0.53840       -2.15080
H         -0.77750       -3.01690       -0.08320
