12
gdb 2521	3.17993	2.29656	1.40907	1.2156	51.11	-0.2812	-0.0587	0.2226	794.6414	0.088166	-360.523204	-360.515602	-360.514657	-360.555659	25.15
O          0.06490        1.35670       -0.14560
C         -0.08900       -0.03980       -0.21110
C         -1.55390       -0.47490        0.04350
C         -1.77210       -1.97970       -0.18080
O         -0.98540       -2.66630       -0.77120
C         -2.00320       -0.08060        1.37730
N         -2.32050        0.22860        2.44510
H         -0.02490        1.63310        0.77320
H          0.18130       -0.34940       -1.22200
H          0.57000       -0.57170        0.48760
H         -2.19520        0.04440       -0.68490
H         -2.72270       -2.38200        0.22600
