18
gdb 19529	3.41713	1.87112	1.73324	0.7713	67.02	-0.2159	0.0802	0.2961	859.3141	0.154709	-384.909368	-384.901813	-384.900869	-384.941335	27.958
C          0.30220        0.85510       -0.46310
O         -0.38020       -0.09660        0.33790
C          0.42340       -0.61800        1.34470
C          0.20330       -2.04900        1.77290
C         -0.56240       -2.96310        0.82780
C          0.18120       -2.82400       -0.52090
O          1.46330       -2.23970       -0.24920
C          1.46400       -1.67270        1.03070
H          1.16840        0.40360       -0.96190
H         -0.40890        1.20930       -1.21320
H          0.64190        1.71290        0.13640
H          0.67500        0.09170        2.13700
H          0.19880       -2.27900        2.83190
H         -0.51380       -3.98800        1.20830
H         -1.61600       -2.69020        0.72610
H          0.35250       -3.78580       -1.01590
H         -0.37710       -2.17320       -1.19970
H          2.45450       -1.64420        1.47170
