15
gdb 1623	3.87468	2.07872	1.43592	0.1804	59.02	-0.253	0.0305	0.2834	831.6567	0.121518	-345.610574	-345.601986	-345.601042	-345.643073	30.699
C          0.05970        1.55360       -0.03550
C          0.06210        0.02810       -0.02560
O          0.82940       -0.50210        1.04240
C         -1.38390       -0.53830        0.00480
O         -2.16410       -0.02570       -1.07320
C         -1.39020       -2.00100        0.02410
C         -1.40430       -3.20150       -0.03480
H          1.08340        1.93070       -0.10260
H         -0.52360        1.93550       -0.87590
H         -0.38960        1.94310        0.88770
H          0.54430       -0.34910       -0.93580
H          0.51190       -0.10620        1.86190
H         -1.86940       -0.16140        0.91650
H         -1.98020       -0.57210       -1.84520
H         -1.41490       -4.26310       -0.06360
