13
gdb 20641	3.99333	1.86837	1.28298	3.3545	64.33	-0.2476	-0.0648	0.1828	884.7583	0.095178	-398.602203	-398.595341	-398.594397	-398.633422	25.026
C          0.03720        1.51240        0.03130
C         -0.05990        0.02080        0.02760
C         -1.18150       -0.70510       -0.17640
C         -1.11660       -2.14940       -0.15020
O         -2.04480       -2.92400       -0.31740
C          0.26070       -2.63300        0.11360
N          1.31140       -1.92060        0.30440
O          1.14920       -0.53820        0.26050
H          0.73960        1.84990       -0.73750
H         -0.94040        1.95790       -0.15710
H          0.41320        1.86680        0.99630
H         -2.12780       -0.21200       -0.35920
H          0.42840       -3.70630        0.15550
