18
gdb 8555	2.79236	2.71154	1.70593	1.7559	71.45	-0.2201	0.0867	0.3068	825.9958	0.153007	-347.749544	-347.742143	-347.741199	-347.780591	29.111
C         -0.10530        1.50330       -0.05260
C          0.01270        0.00910       -0.02530
C          0.91630       -0.86950       -0.89840
C          0.08350       -2.05130       -0.34870
O          0.44900       -2.09610        1.05860
C         -0.29340       -0.87820        1.20770
C         -0.62260       -0.41550        2.58590
C         -1.09350       -1.05610       -0.04400
H          0.82160        1.98060        0.28670
H         -0.31420        1.86680       -1.06540
H         -0.91460        1.85810        0.59440
H          0.72670       -0.69310       -1.96140
H          1.99290       -0.89820       -0.69830
H          0.04140       -3.03060       -0.82070
H          0.29220       -0.20360        3.15010
H         -1.22310        0.49770        2.55620
H         -1.18780       -1.18080        3.12690
H         -2.15020       -1.02460       -0.27440
