16
gdb 6883	2.67832	1.59259	1.3353	3.6072	63.11	-0.2423	-0.0221	0.2202	977.9841	0.126956	-420.861814	-420.852977	-420.852033	-420.894887	32.099
C         -0.05140        1.59130       -0.12590
C          0.01360        0.08550       -0.01920
O         -1.15440       -0.58090       -0.41700
C          1.29370       -0.64780       -0.22440
O          2.43360        0.10780       -0.49100
C          0.65570       -0.61530        1.18230
C          1.28990        0.14200        2.28250
O          1.23440       -0.19020        3.44360
H          0.90070        2.05910        0.12770
H         -0.28850        1.87410       -1.15870
H         -0.83640        1.98760        0.52390
H         -1.29430       -0.39570       -1.35350
H          1.22620       -1.60830       -0.73400
H          3.19790       -0.35070       -0.12490
H          0.15130       -1.52240        1.49590
H          1.85080        1.05030        1.97770
