19
gdb 2294	7.80496	1.31416	1.21047	0.9383	68.71	-0.2429	0.0879	0.3308	1043.0122	0.171288	-310.906553	-310.898654	-310.89771	-310.939067	28.476
C          0.25850        1.41380       -0.14390
C         -0.01200       -0.04050        0.20390
O         -1.29100       -0.39090       -0.29010
C         -1.63860       -1.72790       -0.06000
C         -2.08840       -2.16870        1.36480
C         -3.21320       -2.99760        0.68450
C         -3.02700       -2.13160       -0.59230
H          1.24400        1.71790        0.22170
H          0.22810        1.56030       -1.22730
H         -0.49590        2.06290        0.30980
H          0.75690       -0.69490       -0.24170
H          0.03290       -0.18980        1.29500
H         -0.85110       -2.39920       -0.44060
H         -1.37230       -2.69220        2.00250
H         -2.49570       -1.31020        1.90750
H         -2.91240       -4.03610        0.52160
H         -4.19740       -2.99310        1.15640
H         -3.68730       -1.25990       -0.58620
H         -3.08250       -2.61610       -1.56950
