15
gdb 11806	3.48308	1.84795	1.38175	4.8103	61.74	-0.2538	0.0022	0.256	890.6196	0.118789	-399.79574	-399.788359	-399.787415	-399.827314	27.755
N          0.26910        1.35280       -0.22520
C          0.07850       -0.05500       -0.01520
C          0.05130       -0.55130        1.44870
O          0.71090       -0.46190        2.43050
O         -1.13870       -1.23050        1.29250
C         -1.29610       -0.74810       -0.06310
C         -2.60380       -0.25030       -0.56320
C         -1.99620       -1.54530       -1.09970
H          0.30340        1.58040       -1.21230
H         -0.47320        1.89920        0.19840
H          0.83340       -0.60840       -0.58320
H         -3.46150       -0.33710        0.09440
H         -2.60350        0.62810       -1.20180
H         -1.59200       -1.55460       -2.10700
H         -2.45880       -2.47540       -0.78820
