17
gdb 9603	4.7896	1.19958	1.11558	4.6993	69.8	-0.2826	0.0284	0.311	1079.5771	0.140945	-363.864968	-363.85618	-363.855236	-363.898163	31.604
C         -0.09000        1.59910        0.04870
C         -0.03920        0.08570        0.01030
C         -1.30760       -0.58050       -0.47970
O         -1.50540       -0.19650       -1.83180
C          1.25960       -0.59340       -0.30600
C          0.70390       -0.67150        1.11110
C          1.34680        0.04130        2.17780
N          1.86010        0.61700        3.04060
H          0.85190        2.02610        0.40060
H         -0.29720        1.98280       -0.95340
H         -0.88480        1.94630        0.71810
H         -1.21490       -1.67480       -0.38730
H         -2.15260       -0.26510        0.15230
H         -2.38530       -0.47640       -2.10050
H          1.24550       -1.51120       -0.88280
H          2.13530        0.02650       -0.45800
H          0.28620       -1.62550        1.41770
