22
gdb 14046	3.99239	1.55771	1.45478	0.0734	80.83	-0.28	0.0772	0.3572	995.1835	0.202838	-313.080109	-313.072311	-313.071367	-313.113266	30.329
C          0.09100        1.66780       -0.04820
C          1.60250        1.47120        0.24200
C          1.30840       -0.01970        0.61710
C         -0.06800        0.12410       -0.08990
C          2.29480       -1.09730        0.14340
C          3.32290       -1.27860        1.29530
C          2.73060       -0.50960        2.50920
C          1.25990       -0.25650        2.13520
H         -0.43800        2.11390        0.79830
H         -0.17680        2.22390       -0.94960
H          2.20820        1.55030       -0.66620
H          2.05470        2.10220        1.01310
H         -0.93320       -0.31160        0.41910
H         -0.04030       -0.26250       -1.11380
H          1.74590       -2.03260       -0.02320
H          2.76430       -0.83590       -0.81020
H          3.46440       -2.33840        1.52650
H          4.30750       -0.88700        1.02480
H          2.84030       -1.05400        3.45130
H          3.24810        0.44770        2.63630
H          0.81050        0.57370        2.68990
H          0.65570       -1.15030        2.34190
