13
gdb 19222	3.22394	2.01475	1.44148	3.8176	65.14	-0.2366	-0.0275	0.2092	843.4631	0.094296	-361.386944	-361.379966	-361.379022	-361.418234	26.11
O         -0.09400        0.00820       -0.09390
C         -0.10290        1.19310        0.01790
C         -1.14320        2.27710       -0.12340
N         -0.97100        3.13170        1.10530
C         -0.07190        3.32720       -0.02740
C          1.05170        2.27940        0.12510
C          1.92320        2.32180        1.27510
C          2.65460        2.34400        2.22840
H         -2.08170        2.26040       -0.66150
H         -1.70490        3.83880        1.05590
H         -0.00710        4.26210       -0.56780
H          1.62630        2.19230       -0.80600
H          3.29070        2.36310        3.07840
