16
gdb 16348	3.23567	1.82931	1.44517	2.5585	60.22	-0.2509	0.0572	0.3081	891.8414	0.129496	-420.827076	-420.81927	-420.818326	-420.859602	28.917
O         -0.02400        1.44950        0.31720
C          0.01710        0.06120        0.03530
C         -1.34300       -0.50680       -0.22060
O         -2.21920       -0.62710        0.92670
C         -1.96000       -1.79890        0.13120
C         -2.92000       -1.75100       -1.05630
C         -2.31190       -0.33710       -1.41520
O         -3.15900        0.77340       -1.38410
H         -0.59690        1.56530        1.08320
H          0.64050       -0.04920       -0.85820
H          0.49090       -0.50810        0.85010
H         -1.53500       -2.65230        0.64700
H         -2.71380       -2.50590       -1.81890
H         -3.98300       -1.75920       -0.80400
H         -1.80580       -0.33390       -2.38360
H         -3.49790        0.82510       -0.48120
