14
gdb 15854	2.72146	2.03827	1.34285	3.6254	64.92	-0.2408	-0.026	0.2148	900.3569	0.104243	-382.501292	-382.493325	-382.492381	-382.533826	29.118
O          0.06600        1.41100       -0.12650
C          0.03840        0.01440        0.02780
C          0.21830       -0.44650        1.50780
C         -1.31370       -0.51940        1.61290
O         -2.09300       -0.53350        2.51250
C         -1.45540       -0.46690        0.05940
C         -2.49800        0.31090       -0.56040
C         -3.38420        0.95250       -1.05680
H          0.97200        1.71060        0.00030
H          0.66580       -0.49530       -0.71200
H          0.67720       -1.43530        1.61200
H          0.71380        0.25630        2.18120
H         -1.48930       -1.50990       -0.28490
H         -4.16140        1.52890       -1.49400
