12
gdb 9118	4.12691	0.94045	0.76959	3.6627	70.52	-0.2716	-0.0802	0.1914	1364.7699	0.08029	-381.268651	-381.259875	-381.258931	-381.303332	29.094
O         -0.03360        1.47780        0.01060
C         -0.01580        0.06040        0.00220
C         -1.37690       -0.45260        0.01240
C         -2.49200       -0.91370        0.02060
C         -3.81950       -1.47980        0.03030
O         -4.02710       -2.67770        0.02610
C         -4.89130       -0.50360        0.04580
C         -5.78630        0.30070        0.05860
H          0.88080        1.77880        0.00440
H          0.49580       -0.33810       -0.88960
H          0.51310       -0.34840        0.87900
H         -6.57990        1.00790        0.07050
