17
gdb 7094	8.03972	0.80747	0.74735	5.7051	69.88	-0.2705	-0.0339	0.2366	1484.7639	0.139493	-363.902524	-363.893074	-363.89213	-363.939356	31.683
C         -0.00130        1.61220       -0.05670
C          0.00170        0.08410        0.02520
C          0.66320       -0.56670       -1.19020
C          0.67090       -2.08530       -1.14250
O          0.16550       -2.72660       -0.25920
C          1.39060       -2.76290       -2.33050
C          1.32740       -4.21820       -2.30210
N          1.28760       -5.37190       -2.29990
H          1.01720        2.01240       -0.11510
H         -0.54580        1.96470       -0.93990
H         -0.47940        2.05040        0.82410
H          0.52070       -0.24570        0.93130
H         -1.02200       -0.29330        0.11600
H          0.15940       -0.26330       -2.12010
H          1.70100       -0.22200       -1.30740
H          0.96110       -2.39280       -3.26930
H          2.43950       -2.44090       -2.33350
