17
gdb 3261	3.36984	3.2805	1.77597	0.0455	70.9	-0.2308	0.0243	0.255	736.4051	0.150639	-272.591906	-272.585348	-272.584404	-272.622713	24.94
C         -0.09080        1.42650        0.14900
C          1.19830        2.26290        0.08050
C          2.29610        1.84270        1.02390
C          2.70950        0.61130        1.31990
C          2.25730       -0.72530        0.79930
C          1.01710       -0.87240       -0.03860
C          0.03980       -0.00590       -0.30150
H         -0.47680        1.45870        1.17730
H         -0.85240        1.91650       -0.46870
H          1.57160        2.25000       -0.95290
H          0.94210        3.30810        0.28980
H          2.81960        2.66250        1.51270
H          3.53530        0.52650        2.02550
H          3.10140       -1.16080        0.23830
H          2.15480       -1.40910        1.65890
H          0.91140       -1.87350       -0.45530
H         -0.78410       -0.37190       -0.91150
