20
gdb 16772	3.91423	1.45358	1.3483	1.1307	73.72	-0.2574	0.0792	0.3366	1003.8829	0.178928	-348.99909	-348.991313	-348.990368	-349.031129	30.137
O          0.15060        1.10900       -0.51510
C         -0.04430       -0.28330       -0.30840
C         -1.48790       -0.49250        0.14740
C         -2.54070       -0.07530       -0.92150
C         -3.15310       -1.36080       -1.46050
C         -2.22720       -2.41410       -2.01810
C         -2.70630       -2.51430       -0.59070
C         -1.80040       -1.97530        0.50810
H          1.03850        1.24100       -0.85940
H          0.16300       -0.84910       -1.23020
H          0.63830       -0.66610        0.46780
H         -1.60390        0.13800        1.03470
H         -3.32760        0.52890       -0.45730
H         -2.08470        0.54910       -1.69640
H         -4.16290       -1.31790       -1.85460
H         -2.64820       -3.11590       -2.73060
H         -1.19030       -2.16300       -2.21690
H         -3.38350       -3.32330       -0.33890
H         -0.88290       -2.56580        0.62450
H         -2.32660       -2.02650        1.46730
