18
gdb 18881	3.32021	2.68557	2.4823	1.5328	69.52	-0.2363	0.0878	0.3241	696.1598	0.15834	-347.809538	-347.804157	-347.803212	-347.838563	23.782
C         -0.02980        1.54030        0.07900
C          1.51620        1.47910       -0.01150
C          2.10190        1.05150        1.36070
C          1.75490       -0.45190        1.37170
C          2.25480       -0.91190       -0.00840
C          1.37440        0.08610       -0.75030
C         -0.00610       -0.00020       -0.01620
O          0.32810       -0.58540        1.25190
H         -0.48040        1.97490        0.97580
H         -0.47650        1.98800       -0.81440
H          2.04930        2.29940       -0.49360
H          3.18690        1.19480        1.40560
H          1.65000        1.59170        2.19710
H          2.07820       -1.01620        2.24680
H          3.32610       -0.75140       -0.15840
H          2.00470       -1.95600       -0.21480
H          1.36060        0.09310       -1.83820
H         -0.85740       -0.54040       -0.43560
