14
gdb 16361	2.59652	2.40243	1.448	4.2641	58.1	-0.2728	-0.0155	0.2573	853.1599	0.105961	-419.676938	-419.669685	-419.668741	-419.708511	26.268
C         -0.28760        1.50240        0.00450
C          0.10860        0.04440        0.01080
O          1.37310       -0.19470       -0.71440
C          1.97660       -0.79960        0.36490
O          3.05630       -1.28750        0.43150
C          0.77100       -0.55020        1.25570
C          0.70790       -0.21030        2.67860
O          0.21490       -1.45630        2.17060
H          0.50330        2.12430        0.43310
H         -0.48220        1.84210       -1.01650
H         -1.20260        1.64420        0.58900
H         -0.66980       -0.60220       -0.40410
H          1.61120       -0.27680        3.28120
H         -0.05270        0.48750        3.02400
