13
gdb 20461	4.87132	2.05814	1.48274	3.4326	59.95	-0.2442	-0.0424	0.2019	778.7973	0.097289	-394.738543	-394.732031	-394.731086	-394.769593	23.206
C         -0.03290        1.52650        0.17930
N          1.30950        1.94270       -0.31870
C          2.19480        0.75180       -0.52730
C          1.23270       -0.38410       -0.37320
C          0.00180        0.03880        0.01630
O         -0.82020       -0.94890        0.21270
N          0.07170       -2.19540       -0.12150
N          1.18630       -1.74510       -0.42080
H         -0.16960        1.79980        1.23460
H         -0.83660        2.00970       -0.38570
H          1.19130        2.41390       -1.20550
H          2.67800        0.80230       -1.50840
H          2.99210        0.72830        0.22690
