16
gdb 18940	3.25424	3.20866	2.49205	0.	62.05	-0.2358	0.0993	0.3351	643.1073	0.134902	-383.726907	-383.721994	-383.72105	-383.755611	21.756
C         -0.02860        1.57990        0.00910
C          1.50780        1.64140        0.04180
O          1.71720        1.03630        1.32950
C          1.25520       -0.27540        0.96300
C          2.38060       -0.64660       -0.01750
C          1.91040        0.45680       -0.98040
O          0.63480       -0.10300       -1.33800
C          0.03050        0.04380       -0.04130
H         -0.44140        2.02850        0.91340
H         -0.51910        1.96590       -0.88530
H          2.02780        2.59350       -0.03690
H          1.05990       -0.88570        1.84180
H          3.35270       -0.50650        0.45670
H          2.31170       -1.62140       -0.50170
H          2.49290        0.70920       -1.86350
H         -0.87670       -0.55050        0.04170
