18
gdb 10865	3.5884	1.72738	1.48088	1.9016	63.79	-0.2472	0.0832	0.3303	916.2598	0.154334	-422.084142	-422.076414	-422.07547	-422.115837	29.589
C          0.05270        1.48320        0.03440
C          0.07650       -0.02870        0.01060
O          0.76090       -0.44740       -1.15070
C          0.81230       -1.86860       -1.24790
C          1.50430       -2.44070       -0.00530
O          2.87260       -2.07710        0.02220
C          0.77290       -1.90830        1.23240
O          0.72390       -0.48470        1.17910
H          1.07620        1.86560        0.05600
H         -0.44910        1.86220       -0.85840
H         -0.47610        1.83370        0.92340
H         -0.94770       -0.45100       -0.01240
H         -0.20430       -2.28270       -1.35200
H          1.38500       -2.10090       -2.14840
H          1.46940       -3.53560       -0.02340
H          2.88980       -1.11220        0.03800
H         -0.24620       -2.32510        1.29080
H          1.31690       -2.16950        2.14270
