13
gdb 5460	3.68991	1.94266	1.27421	2.0785	71.95	-0.1861	0.0013	0.1874	883.491	0.096879	-357.654283	-357.646997	-357.646053	-357.685456	27.604
N          0.07110        1.39250        0.16160
C          0.00590        0.01620        0.05470
C         -1.13000       -0.78650        0.02170
N         -0.62010       -2.08810       -0.01860
C          0.72590       -1.99630       -0.01320
N          1.14110       -0.74370        0.02890
C         -2.49340       -0.47170        0.02290
C         -3.66520       -0.17900        0.01350
H          0.94360        1.76910       -0.18080
H         -0.73380        1.88020       -0.20470
H         -1.17490       -2.92650       -0.05010
H          1.36620       -2.86500       -0.04290
H         -4.69480        0.07860        0.02590
