16
gdb 15329	3.31703	1.14488	0.91002	3.1403	76.03	-0.2381	-0.0191	0.219	1267.2891	0.128177	-346.580797	-346.571921	-346.570976	-346.616176	30.307
C          0.11910        1.53450        0.05210
C          0.07390        0.07970        0.06990
C          0.03200       -1.12430        0.08260
C          0.02060       -2.56050        0.08900
C         -0.55860       -3.32710        1.24440
C         -1.28690       -3.35840       -0.08520
C         -2.57510       -2.63660       -0.20630
O         -3.50090       -3.01330       -0.88170
H          0.97380        1.89430       -0.53120
H         -0.78760        1.95540       -0.39630
H          0.21200        1.94490        1.06370
H          0.86870       -3.02400       -0.40720
H         -0.06460       -4.23770        1.56190
H         -1.00970       -2.74770        2.04250
H         -1.22400       -4.26300       -0.67930
H         -2.63460       -1.69990        0.39100
