16
gdb 15962	3.16788	1.8834	1.37691	4.5701	69.01	-0.23	0.0234	0.2535	910.0584	0.131307	-342.7558	-342.748292	-342.747347	-342.788842	27.64
N         -0.07890       -1.08380       -0.38470
C         -0.05550        0.05170       -0.16750
C         -0.01240        1.48040        0.09520
C         -0.03550        1.92720        1.59390
N          1.33910        2.48170        1.46990
C          1.37600        2.15540        0.03810
C          2.58960        1.69710       -0.70050
C          1.92110        3.01440       -1.05880
H         -0.76790        1.97840       -0.51790
H         -0.81870        2.66030        1.80820
H         -0.10420        1.10950        2.31570
H          1.38080        3.47880        1.65290
H          3.53100        1.73720       -0.16340
H          2.49000        0.86260       -1.38690
H          1.36980        3.08000       -1.99190
H          2.42670        3.93250       -0.77430
