11
gdb 2123	3.75597	3.41138	1.83622	5.1237	47.22	-0.2572	-0.085	0.1722	631.3048	0.078793	-380.438011	-380.432067	-380.431123	-380.468406	20.617
O         -0.01230        0.01450       -0.27550
C         -0.05230        1.19560       -0.08370
C         -1.25890        2.09970        0.07940
C         -0.65870        3.51110       -0.00200
O          0.77390        3.38120        0.15850
C          1.19420        2.09960        0.05930
O          2.33860        1.76330        0.09420
H         -2.01900        1.89630       -0.67710
H         -1.70570        1.90310        1.06020
H         -0.84290        3.98240       -0.97180
H         -1.01060        4.18180        0.78350
