11
gdb 21625	7.64623	1.33338	1.13596	5.696	54.75	-0.2615	-0.0745	0.187	942.9171	0.072412	-430.727417	-430.720599	-430.719655	-430.758587	24.105
N         -0.03200        1.33440        0.12680
C         -0.05340       -0.01430        0.04410
N         -1.09040       -0.80770        0.03540
C         -0.48360       -2.03960       -0.00220
C         -1.29100       -3.29120       -0.02340
O         -0.83090       -4.40160       -0.06040
N          0.82630       -2.03270       -0.01970
O          1.12500       -0.65680        0.01190
H          0.81560        1.80630       -0.14250
H         -0.89830        1.80470       -0.07730
H         -2.38140       -3.09040       -0.00130
