20
gdb 16886	3.75258	1.76658	1.38664	0.2973	81.04	-0.2126	0.0294	0.242	968.4947	0.179311	-311.883386	-311.876003	-311.875058	-311.914539	29.693
C          0.05110        1.53920        0.00200
C         -0.03790        0.03870       -0.00180
C         -0.00250       -0.68340       -1.12760
C         -0.04610       -2.16560       -1.15540
C          0.98070       -2.95980       -0.35490
C         -0.44070       -2.87150        0.12490
C         -0.85770       -2.00240        1.29560
C         -0.13340       -0.64300        1.34710
H          0.91500        1.88700        0.58490
H          0.14510        1.94230       -1.01030
H         -0.83530        1.98950        0.46850
H          0.07950       -0.17560       -2.08620
H         -0.36560       -2.60850       -2.09330
H          1.32260       -3.90550       -0.76210
H          1.74890       -2.39170        0.15830
H         -1.03370       -3.77420        0.00680
H         -1.93670       -1.81980        1.21020
H         -0.70700       -2.53370        2.24290
H          0.87740       -0.77470        1.75960
H         -0.64910        0.01250        2.05980
