19
gdb 9519	2.68877	1.83519	1.53145	3.3985	71.73	-0.2407	0.0399	0.2806	951.6201	0.164866	-365.096445	-365.087597	-365.086653	-365.12955	32.378
C          0.07200        1.53990        0.13000
C         -0.02520        0.02620       -0.09680
C         -1.45890       -0.52380       -0.06260
C         -2.36900        0.06530       -1.13890
C         -1.54180       -2.08320        0.08190
N         -2.13190       -1.86650        1.40410
C         -2.09080       -0.49660        1.36160
O         -2.41890        0.35900        2.14290
H          1.11900        1.84970        0.20140
H         -0.38070        2.10250       -0.69210
H         -0.43690        1.82610        1.05440
H          0.42960       -0.23920       -1.06100
H          0.56290       -0.49010        0.67280
H         -1.93850       -0.07680       -2.13670
H         -3.35600       -0.40790       -1.12420
H         -2.51590        1.13690       -0.98090
H         -2.20850       -2.57980       -0.63080
H         -0.57500       -2.59730        0.10100
H         -2.43870       -2.50580        2.12220
