18
gdb 11414	3.65411	1.51194	1.21354	4.0856	67.96	-0.2432	0.0616	0.3047	1030.6973	0.156119	-381.180649	-381.172715	-381.171771	-381.213074	29.633
C          0.05390        1.51670        0.10900
C         -0.02750       -0.01070        0.04600
C         -1.46050       -0.54650       -0.10800
C         -1.52600       -2.09630       -0.07950
N         -1.77130       -2.35540        1.33070
C         -2.40100       -1.27070        1.93140
O         -2.90050       -1.23980        3.03350
N         -2.34090       -0.23070        1.01250
H          1.09310        1.85160        0.17350
H         -0.38940        1.97650       -0.78170
H         -0.46680        1.91540        0.98640
H          0.55920       -0.37090       -0.80880
H          0.41920       -0.45140        0.94550
H         -1.88580       -0.16380       -1.04320
H         -2.34060       -2.46260       -0.72010
H         -0.58900       -2.54700       -0.42050
H         -2.04350       -3.27060        1.65170
H         -2.41760        0.70610        1.37430
