18
gdb 17393	4.51925	1.6858	1.56511	1.8183	71.04	-0.2486	0.0833	0.3318	880.1613	0.154257	-347.751232	-347.744327	-347.743383	-347.78228	27.24
C         -0.03420        1.55080       -0.07810
C          1.51080        1.55000        0.09300
C          1.41350        0.09860        0.61680
C         -0.00490       -0.00110       -0.00160
C          2.48620       -1.02430        0.41410
C          2.53270       -1.19370        1.93810
O          2.89260        0.07820        2.49450
C          1.52400       -0.14210        2.13270
H         -0.54130        1.99300        0.78380
H         -0.44240        2.00000       -0.98590
H          2.02530        1.59350       -0.87220
H          1.96280        2.28550        0.76230
H         -0.77780       -0.50310        0.58830
H          0.02370       -0.45920       -0.99510
H          2.07350       -1.89310       -0.10700
H          3.43130       -0.73080       -0.05100
H          2.76260       -2.07300        2.52860
H          0.77510       -0.00170        2.90540
