14
gdb 15750	6.92588	1.07058	0.99179	1.4764	62.95	-0.2697	-0.0356	0.2341	1139.5219	0.107275	-415.86041	-415.85271	-415.851766	-415.893275	26.504
N         -0.04830        1.25880        0.50560
C          0.01260        0.06690        0.11310
O         -1.14520       -0.67630        0.14670
C         -1.09330       -1.96790       -0.29900
O         -0.10010       -2.50680       -0.71860
C         -2.42710       -2.61030       -0.18760
C         -2.86730       -3.41740       -1.37220
N         -2.45580       -4.08000       -0.14410
H          0.87020        1.69420        0.43300
H          0.86680       -0.49570       -0.26320
H         -3.15750       -2.09250        0.42250
H         -3.92870       -3.46170       -1.59600
H         -2.20030       -3.43940       -2.22900
H         -1.49670       -4.41010       -0.25010
