15
gdb 2350	5.34313	1.92113	1.63237	3.3177	57.18	-0.2512	-0.0209	0.2302	779.1238	0.123857	-345.648463	-345.641029	-345.640085	-345.681076	25.18
C          0.32280        1.45130       -0.03200
C         -0.06840       -0.00730        0.11800
O         -0.31230       -0.50160        1.19450
C         -0.10800       -0.81590       -1.16750
C          1.26340       -1.41430       -1.60490
O          0.76960       -2.75370       -1.47310
C         -0.53320       -2.28980       -1.04990
H          1.24220        1.55020       -0.62000
H         -0.46090        1.98910       -0.57870
H          0.45720        1.90630        0.94980
H         -0.59920       -0.24450       -1.95870
H          1.57000       -1.17930       -2.63150
H          2.10240       -1.21200       -0.92580
H         -0.77100       -2.59930       -0.02770
H         -1.32370       -2.61280       -1.73650
