14
gdb 2771	4.56569	2.11812	1.64945	3.5421	54.22	-0.2421	-0.0326	0.2096	743.652	0.112975	-361.683558	-361.676566	-361.675622	-361.714981	24.77
O          0.11680        1.29530       -0.32470
C         -0.05240       -0.07970       -0.09670
C          0.36940       -0.58390        1.30710
N         -1.05010       -0.49880        1.72160
C         -1.50320       -0.53870        0.31580
C         -2.63920        0.39810       -0.02800
O         -3.39280        0.23430       -0.95170
H         -0.13140        1.76680        0.47890
H          0.36980       -0.59010       -0.96210
H          0.78230       -1.60170        1.27710
H          1.05520        0.06140        1.86800
H         -1.39120       -1.24060        2.32250
H         -1.72650       -1.53470       -0.08980
H         -2.71950        1.27670        0.65180
