12
gdb 23690	3.7709	1.976	1.29658	0.9904	62.61	-0.2138	-0.0546	0.1592	837.1207	0.085545	-418.832387	-418.826249	-418.825305	-418.862742	23.463
F          0.10410        0.05510        0.00260
C         -0.04300        1.36790        0.01090
C         -1.24280        1.99600        0.03010
N         -1.28130        3.37040        0.03730
C         -0.17820        4.04470        0.02570
C          1.16770        3.46150        0.00480
N          2.31430        4.03070       -0.00820
N          1.11990        2.05890       -0.00130
H         -2.17240        1.44570        0.04000
H         -0.23940        5.13140        0.03170
H          2.20520        5.04310       -0.00200
H          2.00200        1.56450       -0.01570
