13
gdb 399	5.6186	3.15251	2.43943	4.1425	54.31	-0.2853	0.037	0.3224	559.2985	0.108158	-249.363808	-249.357626	-249.356681	-249.393152	22.416
C         -0.04150        1.51340        0.00020
C          0.01250       -0.00670        0.00660
C          1.34190       -0.70640       -0.23620
C          0.73820       -0.72220        1.13660
C         -1.16440       -0.65530       -0.51800
N         -2.11460       -1.16190       -0.94190
H          0.88560        1.92120        0.41280
H         -0.16220        1.89810       -1.01670
H         -0.87590        1.87950        0.60520
H          1.33170       -1.62440       -0.81120
H          2.19430       -0.06260       -0.42240
H          1.17160       -0.08920        1.90300
H          0.31550       -1.65100        1.50000
