17
gdb 5078	3.34084	1.91715	1.2369	1.4874	72.54	-0.1761	0.0535	0.2296	976.9494	0.141062	-363.906355	-363.897187	-363.896243	-363.940436	32.117
C          0.02070        1.51720        0.04830
C          0.02120        0.01950        0.01870
C         -0.02280       -0.80410       -1.08580
N         -0.00400       -2.10360       -0.65630
C          0.05230       -2.15640        0.72440
C          0.08540       -3.42930        1.49860
C          0.06840       -0.84790        1.15150
O          0.12180       -0.48190        2.47190
H          0.92270        1.92530        0.52460
H         -0.01920        1.92790       -0.96440
H         -0.84230        1.92340        0.59350
H         -0.06580       -0.55890       -2.13530
H         -0.02750       -2.91000       -1.25420
H          0.96210       -4.04540        1.25860
H          0.12680       -3.19840        2.56550
H         -0.80490       -4.04890        1.32790
H          0.12210        0.47790        2.51860
