17
gdb 15144	6.37873	0.85269	0.8051	2.569	65.98	-0.2524	0.0282	0.2806	1382.0761	0.141661	-401.00024	-400.991601	-400.990657	-401.035012	29.611
O          0.45760        0.51580       -1.11650
C          0.22750        1.31740       -0.23430
N          1.12330        1.70620        0.70910
C          2.48800        1.20130        0.73560
C          3.42320        1.92930       -0.24380
C          4.82430        1.37590       -0.18020
C          6.01430        2.22760       -0.28480
O          5.58940        1.72260        0.98230
H         -0.75600        1.81180       -0.10430
H          0.84780        2.41460        1.36950
H          2.87210        1.29510        1.75490
H          2.44970        0.13720        0.48360
H          3.02680        1.81420       -1.25860
H          3.44440        2.99950       -0.00920
H          4.92750        0.32890       -0.47270
H          6.94720        1.81410       -0.66510
H          5.89240        3.30110       -0.42530
