16
gdb 1668	4.84841	2.00485	1.45733	2.2499	59.15	-0.2359	0.0636	0.2995	847.0436	0.13503	-362.951503	-362.942526	-362.941582	-362.986677	28.805
C          0.01650        1.39290       -0.03330
O          0.00690       -0.03440        0.01960
C          0.65220       -0.55960        1.09460
O          1.19260        0.12270        1.94120
N          0.61160       -1.92440        1.09350
C          1.25570       -2.64180        2.17670
C         -0.03810       -2.72770        0.07560
H          1.03920        1.77520       -0.08340
H         -0.53230        1.65680       -0.93830
H         -0.47230        1.81970        0.84620
H          0.52820       -3.25870        2.72010
H          2.04130       -3.30410        1.79010
H          1.69710       -1.91810        2.85940
H         -0.48260       -2.08690       -0.68100
H          0.68650       -3.39770       -0.40630
H         -0.82500       -3.35100        0.52120
