17
gdb 2240	4.58747	2.60341	2.12855	1.4675	63.16	-0.2238	0.0895	0.3134	686.5542	0.14951	-309.711468	-309.70496	-309.704016	-309.741379	25.415
C         -0.24740        1.53520        0.05350
C          0.07320        0.06200       -0.00600
C         -0.70250       -0.93220        0.84990
C          0.76790       -0.68950        1.09480
O          1.69910       -1.60170        0.57490
C          1.39860       -1.78880       -0.80900
C          0.67810       -0.50860       -1.28500
H          0.62190        2.14190       -0.22650
H         -1.06690        1.79490       -0.62730
H         -0.55340        1.83450        1.06120
H         -1.39860       -0.51570        1.57100
H         -1.01780       -1.88000        0.42590
H          1.11510       -0.23390        2.01520
H          2.33820       -1.98240       -1.33360
H          0.75480       -2.66990       -0.93920
H         -0.05870       -0.72460       -2.06540
H          1.39340        0.21480       -1.69340
