20
gdb 12966	2.24694	2.20453	1.70169	1.683	75.09	-0.2268	0.0834	0.3102	933.5897	0.175605	-348.973088	-348.964468	-348.963523	-349.005448	32.667
C          0.03410        1.63810       -0.31160
C          0.16090        0.13760       -0.15040
C          1.42550       -0.62150       -0.41000
O          2.56800        0.12940        0.01650
C          2.15200       -0.01260        1.40810
C          2.24520        1.25100        2.24100
C          0.82200       -0.64680        0.98280
C          0.11970       -1.72410        1.75840
H          1.01410        2.11660       -0.26770
H         -0.40550        1.87310       -1.28720
H         -0.60890        2.08230        0.45580
H         -0.71020       -0.41760       -0.49880
H          1.58090       -1.38740       -1.16280
H          2.77950       -0.79170        1.86750
H          3.27650        1.61950        2.24710
H          1.59620        2.04600        1.87230
H          1.96490        1.02810        3.27660
H         -0.43970       -1.30920        2.60600
H         -0.59660       -2.26320        1.13000
H          0.83090       -2.45730        2.15670
