19
gdb 12777	3.49419	1.50776	1.2771	2.5867	71.35	-0.2215	0.0759	0.2974	1021.9494	0.165405	-365.015862	-365.007535	-365.006591	-365.048419	31.389
C         -0.07170        1.52930        0.09400
C          0.10910        0.04520        0.01080
N         -0.76770       -0.89580        0.75800
C          0.70500       -0.93820        0.95880
C          1.25720       -1.79510       -0.18200
C          0.64620       -0.75570       -1.19580
C         -0.35250       -1.25180       -2.23140
O          0.25730       -2.08560       -3.21090
H          0.80640        2.05490       -0.29660
H         -0.94210        1.86050       -0.48500
H         -0.22060        1.84960        1.13150
H         -1.15870       -0.37080        1.54080
H          1.12800       -0.78530        1.94500
H          2.34750       -1.83190       -0.22120
H          0.85530       -2.81300       -0.22030
H          1.44840       -0.20630       -1.69830
H         -1.18400       -1.76010       -1.72590
H         -0.77030       -0.40420       -2.78700
H          0.54540       -2.88860       -2.76530
