18
gdb 18931	3.50939	2.43887	1.959	1.2971	70.51	-0.2556	0.0783	0.3339	754.9497	0.156847	-347.766197	-347.760127	-347.759183	-347.795889	25.83
O         -0.08460        1.39370        0.02020
C         -0.04050       -0.02150        0.05690
C          0.38070       -0.65040        1.40850
C         -0.61760        0.02140        2.38830
C         -1.65210       -0.82060        1.62810
C         -0.57440       -1.92540        1.38150
C         -1.12310       -2.13700       -0.03910
C         -1.45630       -0.62510        0.06050
H          0.80770        1.72440        0.16700
H          0.55670       -0.40210       -0.78350
H          1.44670       -0.72860        1.62750
H         -0.49590       -0.34610        3.41150
H         -0.68830        1.11020        2.37720
H         -2.65830       -1.03500        1.98650
H         -0.36320       -2.72920        2.08660
H         -0.46280       -2.46960       -0.84710
H         -2.01770       -2.76600       -0.01580
H         -2.19960       -0.14220       -0.57200
