12
gdb 3151	4.48199	2.76175	1.95458	4.0641	51.6	-0.2514	0.0095	0.2609	637.6288	0.090134	-360.500454	-360.494253	-360.493309	-360.530581	22.144
O          0.00410       -0.00030       -0.04170
C          0.01880        1.19850       -0.02950
N         -0.96630        2.16460       -0.05490
C         -0.07820        3.33360       -0.01440
C          1.07910        2.31390        0.04700
C          2.36900        2.33580        0.73420
O          2.26670        2.37150       -0.69750
H         -1.97100        2.08980       -0.02430
H         -0.08940        3.94240       -0.92340
H         -0.20150        3.96860        0.86860
H          2.71220        3.25780        1.20020
H          2.76510        1.41070        1.14790
