21
gdb 11625	5.38645	0.85931	0.78141	1.0826	76.05	-0.23	0.0734	0.3034	1496.5188	0.187311	-366.231374	-366.221962	-366.221018	-366.266049	34.249
C         -0.18080        1.50800        0.08680
C         -0.02940       -0.00850       -0.03670
O          0.65320       -0.36080       -1.24060
C          0.64370       -0.62790        1.19390
C          0.75280       -2.15030        1.11460
N          1.49000       -2.68010        2.25670
C          0.70070       -3.02110        3.43570
C          1.27330       -4.08710        2.56760
H          0.79840        1.98610        0.21620
H         -0.64460        1.91750       -0.81460
H         -0.79780        1.77730        0.95020
H         -1.02520       -0.45470       -0.15790
H          1.53040        0.03720       -1.20200
H          1.65110       -0.20520        1.31130
H          0.08300       -0.34290        2.09330
H         -0.25960       -2.59140        1.03780
H          1.28920       -2.42690        0.20160
H          1.15070       -2.78680        4.39630
H         -0.37760       -2.87180        3.38900
H          0.57570       -4.64560        1.94470
H          2.15100       -4.64540        2.88080
