19
gdb 12353	2.90989	2.0837	1.50264	2.3569	71.11	-0.2422	0.0331	0.2753	910.5763	0.166771	-365.087169	-365.079272	-365.078328	-365.119046	30.047
C         -0.04860        1.54650       -0.04360
C          0.05610        0.02060       -0.00570
C          0.69710       -0.56270       -1.27220
N          0.95510       -1.99620       -1.18950
C          0.98630       -2.52280       -0.04050
O          0.85140       -1.95270        1.18130
C          0.81260       -0.50700        1.22380
C          2.23610        0.01770        1.40600
H          0.93140        2.01590       -0.17660
H         -0.68230        1.86590       -0.87700
H         -0.48890        1.94260        0.87820
H         -0.95870       -0.39290        0.06580
H          0.04630       -0.38520       -2.13640
H          1.64030       -0.04580       -1.50140
H          1.13230       -3.59600        0.07310
H          0.23500       -0.28330        2.12720
H          2.85290       -0.17040        0.52240
H          2.23200        1.09340        1.60260
H          2.70360       -0.48280        2.25800
