12
gdb 5468	3.73955	1.93735	1.27619	2.4837	67.64	-0.1999	-0.0041	0.1957	867.9085	0.08471	-377.532031	-377.525115	-377.52417	-377.562939	26.105
O          0.12650        1.37020        0.05240
C          0.08150        0.02900       -0.00630
C          0.01770       -0.73780       -1.15910
N         -0.00760       -2.04710       -0.67020
C          0.03990       -1.98850        0.67680
N          0.09480       -0.74130        1.11280
C         -0.01810       -0.41400       -2.52170
C         -0.04970       -0.15280       -3.69870
H          0.16560        1.60110        0.98900
H         -0.05350       -2.87300       -1.24300
H          0.03280       -2.87010        1.29910
H         -0.07680        0.09410       -4.73060
