11
gdb 16794	3.78549	2.17535	1.49701	1.5395	51.73	-0.2802	-0.0563	0.224	758.6724	0.073236	-434.576995	-434.571052	-434.570108	-434.607222	22.121
O          0.04130       -0.03250       -0.07430
C          0.02330        1.16690       -0.00920
N         -1.11270        1.96870        0.11630
C         -0.88190        3.34170        0.01380
O         -1.72060        4.20070       -0.02960
C          0.62940        3.49170       -0.05010
O          1.25430        2.94330        1.11710
C          1.19430        2.13460       -0.06440
H         -2.03710        1.58250        0.24600
H          1.08040        4.37140       -0.49360
H          2.13290        1.84280       -0.52030
