16
gdb 11556	5.51851	0.97614	0.94053	3.6004	61.84	-0.269	-0.0307	0.2382	1237.288	0.128118	-420.863401	-420.854928	-420.853984	-420.898255	29.394
O          0.16420        1.19010        0.49780
C         -0.05990       -0.17630        0.34050
C         -1.44010       -0.45920       -0.22350
O         -2.20770        0.45960       -0.41750
C         -1.80650       -1.90260       -0.53170
C         -3.19900       -2.24540       -0.04960
C         -3.58260       -3.62170        0.27870
O         -3.30090       -2.67210        1.30960
H         -0.67730        1.61240        0.26120
H          0.68990       -0.63180       -0.32820
H          0.01720       -0.72090        1.29900
H         -1.75990       -2.01420       -1.62380
H         -1.07640       -2.59240       -0.09730
H         -3.97030       -1.54230       -0.35990
H         -4.62410       -3.92780        0.19410
H         -2.85330       -4.42390        0.17080
