16
gdb 4823	4.67349	1.38963	1.15445	2.5465	68.12	-0.2259	0.005	0.2309	1048.9811	0.131876	-379.957645	-379.949688	-379.948744	-379.990659	28.275
C          0.23220        1.41550       -0.07240
C          0.00180       -0.04640        0.03100
C         -1.07960       -0.83690        0.23410
N         -0.69140       -2.17230        0.24080
C          0.58910       -2.13980        0.04890
C          1.54710       -3.27970       -0.09640
N          2.06640       -3.49440       -1.45440
O          1.08830       -0.87790       -0.09000
H          0.92350        1.76980        0.70050
H          0.65790        1.68950       -1.04440
H         -0.71490        1.94650        0.04720
H         -2.10750       -0.54250        0.37720
H          2.40210       -3.12730        0.57160
H          1.02760       -4.18280        0.23250
H          1.28670       -3.63820       -2.09080
H          2.53560       -2.65070       -1.77210
