14
gdb 15332	3.48433	1.14737	0.91819	3.034	68.5	-0.2561	-0.0419	0.2142	1228.2437	0.103787	-382.497412	-382.488779	-382.487835	-382.532369	28.752
C          0.07690        1.50680       -0.09740
C          0.01690        0.05510       -0.03570
C         -0.04040       -1.14650        0.02290
C         -0.05780       -2.58300        0.06100
O         -0.35730       -3.22830        1.29950
C         -1.30410       -3.38430        0.24290
C         -2.61450       -2.69160        0.44090
O         -3.63830       -3.06170       -0.07380
H          0.86620        1.83920       -0.78000
H         -0.87080        1.92930       -0.44790
H          0.28860        1.93160        0.88970
H          0.73150       -3.07430       -0.50830
H         -1.35890       -4.37020       -0.21660
H         -2.55980       -1.80750        1.10910
