14
gdb 12957	2.72939	2.21868	1.73842	1.0848	59.57	-0.2414	0.0081	0.2495	794.4322	0.106909	-415.80734	-415.799939	-415.798995	-415.838734	27.923
O          0.04850        1.38390        0.34030
C         -0.04750        0.00790        0.13590
C         -0.51750       -0.86810        1.25190
N         -1.62380       -0.24310        1.99110
C         -2.40990       -0.11750        0.80180
N         -3.58800        0.25170        0.54640
C         -1.35220       -0.73080       -0.06320
O         -1.53920       -1.52380       -1.16310
H         -0.26000        1.83120       -0.45520
H          0.75020       -0.43330       -0.46600
H          0.02810       -1.70430        1.66920
H         -1.40620        0.62380        2.47500
H         -4.05960        0.59620        1.38530
H         -2.34090       -2.04200       -1.02380
