20
gdb 14700	9.26714	0.54954	0.54006	0.9173	82.85	-0.2412	0.0425	0.2836	2129.0773	0.174316	-348.969571	-348.959159	-348.958215	-349.007348	34.792
C         -0.01680        1.48890       -0.32520
C         -0.12710       -0.03690       -0.32760
C         -1.31460       -0.54050        0.51780
C         -1.44520       -1.99260        0.53000
C         -1.53600       -3.19300        0.51690
C         -1.63750       -4.64540        0.53210
O         -2.45470       -5.09280       -0.53440
C         -2.57720       -6.49500       -0.55160
H          0.83080        1.82480       -0.93000
H         -0.92160        1.95350       -0.73300
H          0.12450        1.87610        0.69020
H         -0.24230       -0.40610       -1.35260
H          0.79630       -0.48300        0.05860
H         -1.20840       -0.17460        1.54830
H         -2.24490       -0.09620        0.13850
H         -0.63100       -5.09360        0.45400
H         -2.05360       -4.98290        1.49800
H         -3.21790       -6.75380       -1.39760
H         -1.60150       -6.99150       -0.67890
H         -3.03670       -6.87900        0.37370
