17
gdb 12896	3.5305	1.78562	1.52299	1.59	74.86	-0.227	0.032	0.259	900.1906	0.141167	-326.652219	-326.644429	-326.643484	-326.683826	29.97
C         -0.00090        1.52440        0.08840
C         -0.02280        0.02980       -0.03610
C         -1.28500       -0.82970       -0.14450
C         -0.59170       -1.79880        0.84550
N          0.61240       -0.90070        0.97910
C          1.18800       -0.76260       -0.39710
C          1.19550       -1.82690       -1.35880
C          1.21830       -2.71530       -2.17030
H          0.98550        1.87600        0.40430
H         -0.24160        1.99690       -0.87100
H         -0.73530        1.86540        0.82610
H         -2.16360       -0.34010        0.28060
H         -1.53110       -1.20730       -1.14010
H         -1.08800       -1.87320        1.81450
H         -0.35500       -2.80070        0.47950
H          2.12020       -0.20440       -0.35010
H          1.24430       -3.49730       -2.88830
