15
gdb 16655	3.25508	2.20211	1.50881	3.7365	60.7	-0.2416	-0.0311	0.2105	821.0519	0.11978	-399.789718	-399.782839	-399.781895	-399.820942	26.247
O         -0.17030        1.47180       -0.20600
C         -0.06640        0.08480       -0.06170
C         -1.41100       -0.66840        0.04400
C         -1.17270       -1.98640       -0.69630
N         -1.15900       -1.78910       -2.15160
C          0.13130       -1.94670       -1.42120
C          0.71760       -0.57900       -1.19890
O          1.62810       -0.04330       -1.78030
H          0.57840        1.73670       -0.75990
H          0.52690       -0.17490        0.83890
H         -1.69660       -0.83310        1.08500
H         -2.19840       -0.09190       -0.44750
H         -1.55490       -2.91820       -0.29400
H         -1.35450       -2.66660       -2.62910
H          0.76120       -2.80560       -1.62020
