15
gdb 20987	3.45269	2.13912	1.34309	3.2014	62.95	-0.2155	0.0239	0.2394	878.6745	0.119787	-396.036706	-396.028802	-396.027858	-396.068861	27.998
C         -0.01300        1.46670        0.01050
N          0.01860        0.02150        0.03970
C          0.01260       -0.75570       -1.13020
O         -0.01910       -0.36940       -2.28130
N          0.05160       -2.02790       -0.61500
N          0.08000       -2.07540        0.76190
C          0.05940       -0.82710        1.12510
C          0.07750       -0.36590        2.53880
H          0.87950        1.89540        0.47700
H         -0.04200        1.75630       -1.04190
H         -0.90180        1.85720        0.51580
H          0.05910       -2.87660       -1.15160
H          0.10860       -1.23830        3.19290
H          0.95240        0.26060        2.74550
H         -0.81400        0.22370        2.78010
