16
gdb 7057	4.96368	0.8235	0.72873	4.0401	71.08	-0.2435	-0.0238	0.2197	1505.8032	0.126469	-383.718727	-383.70885	-383.707906	-383.755398	32.487
C          0.00850        1.48550       -0.03650
C          0.04400        0.03060       -0.01870
C          0.08360       -1.17300        0.01300
C          0.08640       -2.63520        0.00930
O         -1.16970       -3.17820        0.41700
C          0.50540       -3.18690       -1.37450
C          0.60150       -4.69940       -1.38920
O          1.48770       -5.31270       -1.92800
H          0.93250        1.90570        0.37490
H         -0.10910        1.87100       -1.05500
H         -0.82460        1.86680        0.56390
H          0.80070       -2.99690        0.75980
H         -1.85910       -2.66560       -0.01970
H         -0.26070       -2.88680       -2.10350
H          1.45960       -2.76360       -1.69900
H         -0.22610       -5.21860       -0.86150
