16
gdb 19748	3.59712	2.30234	2.1905	3.2459	66.74	-0.2312	-0.0046	0.2266	715.6423	0.134229	-346.634534	-346.62893	-346.627986	-346.664011	23.406
O         -0.00110        0.00440        0.00480
C         -0.03060        1.20570        0.01070
C         -1.20020        2.14480        0.03050
C         -0.69500        3.37990        0.78000
C          0.74590        3.09360        1.21460
C          1.13980        2.21610       -0.00010
C          0.71410        3.10470       -1.19580
C         -0.71480        3.38680       -0.72070
H         -2.22930        1.81730        0.04250
H         -1.37760        3.97850        1.36830
H          1.34960        4.00390        1.29310
H          0.80790        2.54880        2.16200
H          2.13470        1.77950       -0.01520
H          1.31560        4.01570       -1.28180
H          0.75100        2.56870       -2.14950
H         -1.41260        3.99080       -1.28520
