18
gdb 8110	2.98068	1.91995	1.46222	1.428	67.87	-0.2408	0.0701	0.3109	912.1478	0.152605	-384.902748	-384.894447	-384.893502	-384.934803	31.773
C         -0.09730        1.56110        0.04950
C          0.09360        0.05770        0.05800
C          1.37640       -0.69790       -0.25320
C          2.61420       -0.05110        0.35340
O          2.98450        1.18450       -0.22550
C          1.93780       -0.06430        1.77140
C          0.73190       -0.76810        1.13530
O          0.11920       -1.87710        1.69820
H          0.77660        2.08890        0.43130
H         -0.26620        1.91750       -0.97240
H         -0.97060        1.84590        0.64840
H         -0.75000       -0.48790       -0.36450
H          1.39930       -1.44680       -1.03560
H          3.45900       -0.75220        0.33360
H          3.78640        1.49000        0.21060
H          2.46460       -0.70910        2.47840
H          1.75720        0.91160        2.23250
H         -0.63080       -1.57400        2.22130
