22
gdb 8203	2.59475	2.26476	1.55861	0.1388	81.66	-0.2464	0.0848	0.3312	947.1678	0.201268	-313.089395	-313.081193	-313.080249	-313.121054	32.866
C         -0.03410        1.51790       -0.04340
C         -0.00830        0.00930        0.02810
C          1.28230       -0.73750       -0.23930
C          0.66480       -0.78110        1.14330
C          1.38670       -0.15050        2.31070
C         -0.20860       -1.99820        1.43780
C         -1.12440       -2.15940        0.20550
C         -1.28910       -0.72940       -0.35240
H          0.90530        1.96090        0.30020
H         -0.19560        1.85800       -1.07360
H         -0.84390        1.93290        0.56900
H          1.28040       -1.62420       -0.86660
H          2.17710       -0.13200       -0.35020
H          1.94050        0.74550        2.01510
H          0.68700        0.13540        3.10560
H          2.11000       -0.84980        2.74730
H          0.37550       -2.90250        1.64610
H         -0.80680       -1.79260        2.33570
H         -0.64870       -2.80500       -0.53920
H         -2.08210       -2.62480        0.45360
H         -2.14020       -0.22680        0.12620
H         -1.48210       -0.72110       -1.43180
