17
gdb 1712	4.81693	1.96089	1.80862	2.7295	64.58	-0.2457	-0.021	0.2247	773.1958	0.147292	-309.723988	-309.716488	-309.715543	-309.755559	27.325
C         -0.05980        1.59600        0.01640
C         -0.00670        0.07300        0.01490
C          1.12150       -0.52990       -0.89560
C          2.01580       -0.72450        0.35520
C          0.75640       -0.54460        1.24040
C         -1.36500       -0.53800       -0.22130
O         -2.39010        0.07160       -0.39180
H          0.93330        2.02250        0.18810
H         -0.43600        1.97210       -0.93940
H         -0.73150        1.96020        0.79910
H          0.82150       -1.48450       -1.33980
H          1.48540        0.12310       -1.69240
H          2.55210       -1.67210        0.44030
H          2.73520        0.08790        0.48370
H          0.83350        0.09690        2.12150
H          0.32800       -1.50440        1.54690
H         -1.35810       -1.65540       -0.22810
