17
gdb 17834	4.21116	1.65175	1.4516	3.282	68.95	-0.2342	0.0295	0.2637	906.0889	0.143356	-363.866652	-363.859045	-363.858101	-363.898862	28.743
N         -0.03070        1.30860        0.26050
C          0.08290        0.07640       -0.33020
O          1.13260       -0.29070       -0.83050
C         -1.17120       -0.74380       -0.27250
C         -1.68530       -1.63060       -1.39210
C         -0.55660       -2.34920       -2.14640
C         -0.08890       -2.98560       -0.79770
C         -1.22800       -2.24730       -0.07900
H          0.74970        1.93860        0.16730
H         -0.91690        1.68730        0.54400
H         -1.99040       -0.25150        0.24740
H         -2.69210       -1.47710       -1.76430
H         -0.95060       -3.09540       -2.84030
H          0.16570       -1.71550       -2.66050
H         -0.24050       -4.06740       -0.77910
H          0.92420       -2.74970       -0.47430
H         -1.82310       -2.64910        0.73340
