16
gdb 1530	6.51858	1.42547	1.3288	1.5408	57.64	-0.2248	0.0147	0.2395	947.1382	0.135676	-362.933001	-362.924518	-362.923574	-362.966437	28.321
C          0.50790        0.77780        0.40960
N         -0.40020        0.38110       -0.66520
C          0.21780       -0.46690       -1.66080
C          0.50570       -1.89440       -1.19330
O          0.04290       -2.39830       -0.20010
O          1.31650       -2.53550       -2.05540
C          1.60030       -3.90460       -1.73530
H          0.97280       -0.06480        0.94520
H          1.30660        1.40340       -0.00520
H         -0.04100        1.38280        1.13680
H         -1.18410       -0.12200       -0.26120
H         -0.43380       -0.54910       -2.54140
H          1.15000       -0.01490       -2.01600
H          2.09410       -3.97750       -0.76310
H          0.67930       -4.49240       -1.70560
H          2.25820       -4.26500       -2.52610
