15
gdb 20978	4.80081	1.68111	1.2701	2.1974	64.06	-0.2131	-0.0151	0.198	922.9143	0.120299	-392.139519	-392.131751	-392.130806	-392.171973	26.856
C         -0.08590        1.40640       -0.02140
N          0.22560       -0.01330       -0.03760
C          0.05800       -0.74070        1.20700
C          0.07080       -0.69870       -1.20730
N          0.01740       -2.03150       -1.29730
N         -0.06890       -2.17880       -2.62350
N         -0.08720       -1.05870       -3.31160
N         -0.00260       -0.09300       -2.43150
H          0.47840        1.88580        0.78410
H          0.20090        1.85330       -0.97280
H         -1.15740        1.59900        0.14450
H         -1.00080       -0.89600        1.46720
H          0.53730       -1.71770        1.13060
H          0.53230       -0.17510        2.01410
H         -0.12980       -3.08300       -3.06520
