19
gdb 1808	3.48107	2.38418	1.82194	1.7246	66.69	-0.2584	0.0849	0.3432	801.5285	0.169765	-310.91014	-310.901848	-310.900904	-310.942327	30.885
C          0.44300        1.53780       -0.13540
C          0.00170        0.07310        0.04050
C          0.27040       -0.71470       -1.24800
C          0.66810       -0.53160        1.28120
C          0.19400        0.00880        2.61680
C          1.28410       -1.86940        1.26750
O          2.09460       -0.69360        1.18320
H          1.52710        1.59050       -0.27760
H         -0.03810        1.98060       -1.01290
H          0.18550        2.15650        0.72860
H         -1.08080        0.06190        0.22930
H          1.34690       -0.81810       -1.41930
H         -0.17300       -1.71430       -1.21920
H         -0.15640       -0.18970       -2.10810
H         -0.87140       -0.20150        2.76130
H          0.75260       -0.45330        3.43430
H          0.33460        1.09130        2.68520
H          1.36490       -2.42370        2.20270
H          1.26570       -2.48640        0.37310
