15
gdb 2129	3.80994	2.94052	1.7118	3.1894	64.18	-0.2347	-0.0368	0.198	728.6143	0.125279	-308.569129	-308.562215	-308.56127	-308.600271	24.789
C         -0.02290        1.51860        0.04180
C         -0.00350        0.02710       -0.03340
C         -0.05180       -0.77630       -1.10530
C         -0.00960       -2.24700       -0.77090
C          0.07860       -2.27760        0.76710
C          0.07950       -0.80420        1.19780
O          0.13730       -0.38910        2.33320
H          0.87690        1.88960        0.54460
H         -0.08620        1.97690       -0.94820
H         -0.87130        1.86200        0.64360
H         -0.11560       -0.42990       -2.13260
H         -0.90010       -2.76210       -1.15170
H          0.84720       -2.73490       -1.25160
H         -0.76520       -2.79200        1.23600
H          0.98660       -2.76370        1.13590
