18
gdb 5570	3.09446	1.76819	1.2206	1.0827	74.61	-0.1915	0.0547	0.2462	1018.8326	0.155203	-344.023049	-344.01451	-344.013566	-344.056655	31.251
C          0.17400        1.62040       -0.14660
C         -0.09430        0.12490        0.09690
C          0.66870       -0.44170        1.25900
C          0.13860       -0.81160        2.48200
N         -1.17090       -0.80880        3.02420
N          1.17170       -1.26600        3.26860
C          2.35190       -1.19730        2.57870
C          2.07330       -0.68880        1.33140
H          1.23630        1.80090       -0.33900
H         -0.39350        1.99030       -1.00730
H         -0.10560        2.21620        0.72850
H         -1.16820       -0.02500        0.26520
H          0.14980       -0.43210       -0.81700
H         -1.78620       -1.45020        2.53360
H         -1.59700        0.11030        2.97430
H          1.03970       -1.59050        4.21100
H          3.28060       -1.51460        3.02490
H          2.79490       -0.51590        0.54640
