12
gdb 9578	4.64924	1.33044	1.26953	3.6168	61.09	-0.3083	-0.0208	0.2875	935.9008	0.08283	-377.52142	-377.513831	-377.512887	-377.553345	27.021
O         -0.03310        1.37970       -0.06030
C          0.01570       -0.00280        0.01420
C         -0.44650       -0.69320        1.27690
C         -1.34130       -0.70280        0.05060
C         -2.53080        0.10200        0.02360
N         -3.50450        0.72420        0.00260
C          1.05870       -0.63490       -0.77070
N          1.90870       -1.12780       -1.37980
H          0.72270        1.74500        0.41520
H          0.01760       -1.62880        1.56370
H         -0.73430       -0.03260        2.08580
H         -1.41300       -1.63360       -0.50060
