18
gdb 16182	4.17024	1.57125	1.36245	2.7009	67.65	-0.2479	0.0692	0.3171	944.6469	0.154784	-384.924252	-384.916674	-384.91573	-384.956095	28.725
O         -0.04440        1.35200        0.40040
C         -0.02060        0.00010       -0.04470
C         -1.42370       -0.52760       -0.00610
C         -2.00120       -1.13020        1.25050
C         -1.75150       -2.00370        0.04710
C         -2.92930       -2.19120       -0.89250
O         -3.50060       -0.89650       -1.05080
C         -2.45350        0.06590       -0.95690
H          0.83660        1.72080        0.28620
H          0.37160       -0.06480       -1.07350
H          0.62760       -0.62050        0.59440
H         -1.33070       -1.24220        2.09560
H         -3.02850       -0.89360        1.50920
H         -0.97470       -2.75970        0.07530
H         -2.58330       -2.59860       -1.85730
H         -3.71620       -2.84730       -0.50530
H         -2.89860        1.00190       -0.60830
H         -1.98670        0.24780       -1.94030
