18
gdb 5603	3.27473	1.82901	1.29082	3.9891	74.12	-0.211	0.0346	0.2456	980.1498	0.155304	-344.029734	-344.021548	-344.020603	-344.062641	29.449
C         -0.23340        1.48610        0.00240
C          0.07300       -0.02340        0.02250
C          0.78040       -0.52500       -1.19570
C          2.10500       -0.80630       -1.42620
N          2.31180       -1.22610       -2.71860
C          1.12280       -1.20200       -3.27140
N          0.15150       -0.78560       -2.40420
C         -1.26100       -0.67770       -2.70270
H          0.68880        2.06390       -0.10790
H         -0.89320        1.75560       -0.82850
H         -0.72420        1.79490        0.93090
H          0.70650       -0.24690        0.88720
H         -0.85900       -0.58200        0.18170
H          2.91980       -0.73160       -0.72060
H          0.88770       -1.47580       -4.29030
H         -1.85730       -1.27140       -2.00290
H         -1.60390        0.36090       -2.65890
H         -1.43660       -1.05740       -3.71100
