9
gdb 3888	7.58566	2.36214	1.8039	5.1783	41.27	-0.2594	0.0119	0.2712	614.8399	0.055698	-412.528245	-412.522716	-412.521772	-412.557489	19.934
N          0.08550        1.34460        0.15780
C         -0.05070       -0.00050        0.03360
N         -1.15240       -0.66700       -0.04340
O         -0.70480       -2.03040       -0.05300
C          0.63930       -2.06750       -0.00960
O          1.34810       -3.01630       -0.01940
O          1.07680       -0.74270        0.05060
H          0.93710        1.73330       -0.21860
H         -0.74970        1.87380       -0.04460
