19
gdb 17387	4.60744	1.64058	1.54027	1.689	74.48	-0.2266	0.0769	0.3035	905.9383	0.167092	-327.866109	-327.859185	-327.858241	-327.897089	27.67
C          0.28150        1.53910       -0.06120
C          1.45690        0.64840       -0.12400
N          0.08530        0.11280        0.25370
C          0.05440       -0.58440       -1.08340
C          1.49260       -0.13820       -1.43310
C          1.96450        0.54170       -2.74530
C          3.31790       -0.20770       -2.60910
C          2.63610       -1.17280       -1.60160
H          0.18160        2.18300        0.80750
H         -0.14640        1.94270       -0.97750
H          2.26570        0.69870        0.60020
H         -0.04060       -1.66430       -0.94200
H         -0.75250       -0.23660       -1.73950
H          1.38840        0.18970       -3.60730
H          1.98140        1.63500       -2.76110
H          3.74720       -0.64490       -3.51310
H          4.08090        0.41150       -2.12930
H          3.19110       -1.45480       -0.70250
H          2.27750       -2.08570       -2.08830
