19
gdb 1293	6.89189	1.00495	0.92217	1.7364	64.63	-0.2581	0.0724	0.3304	1259.7952	0.169494	-348.052763	-348.043488	-348.042544	-348.086794	32.445
C         -0.03290        1.54620       -0.02470
C         -0.00610        0.01740       -0.00220
O          0.67260       -0.49990       -1.14590
C          0.72150       -0.53260        1.22430
C          0.68260       -2.06010        1.31750
C          1.45130       -2.59550        2.51720
O          1.33050       -4.01080        2.52200
H          0.98640        1.94560       -0.02830
H         -0.54560        1.91490       -0.92090
H         -0.56210        1.94560        0.84690
H         -1.04490       -0.35580        0.01420
H          0.20780       -0.19530       -1.93120
H          1.76260       -0.18500        1.18400
H          0.27300       -0.08800        2.12190
H         -0.35620       -2.40670        1.38930
H          1.09840       -2.49420        0.40370
H          2.50760       -2.28630        2.44940
H          1.04660       -2.16010        3.44670
H          1.83150       -4.35190        3.26830
