16
gdb 20114	5.87005	1.2042	1.15969	1.233	68.05	-0.2612	-0.0385	0.2227	1053.9114	0.131949	-379.884068	-379.876577	-379.875633	-379.916479	27.008
O         -0.00160        0.31540        0.00200
C         -0.01770        1.53600        0.00740
C          1.19440        2.32190        0.37900
C          1.88860        1.90660        1.64480
N          2.48720        1.62330        0.35030
C         -1.24990        2.29300       -0.35780
C         -1.93290        1.87060       -1.62730
N         -2.52400        1.56060       -0.33540
H          1.21430        3.36690        0.08420
H          2.38600        2.66920        2.23680
H          1.43840        1.09030        2.20250
H          2.28830        0.65200        0.10640
H         -1.29720        3.33460       -0.05400
H         -2.45020        2.62500       -2.21290
H         -1.46150        1.07120       -2.19190
H         -2.29970        0.59280       -0.09980
