17
gdb 7253	4.18582	1.18828	1.0056	1.993	66.95	-0.2865	-0.0263	0.2603	1170.088	0.13967	-401.03455	-401.025445	-401.024501	-401.06892	31.659
C         -0.12110        0.91760       -0.70690
C         -0.00110       -0.25360        0.28940
C          0.64110        0.18060        1.60840
C         -1.34900       -0.89700        0.50280
N         -1.98550       -0.87350        1.59070
O         -1.76910       -1.54760       -0.66410
C         -3.07750       -1.47010       -1.03710
O         -3.51820       -2.11550       -1.93520
H          0.86860        1.33650       -0.90890
H         -0.55260        0.59470       -1.65760
H         -0.74660        1.71530       -0.29260
H          0.62300       -1.02410       -0.18330
H          0.03570        0.94400        2.10390
H          0.73940       -0.66020        2.29910
H          1.63580        0.59470        1.41890
H         -2.85840       -1.39950        1.56000
H         -3.64500       -0.73630       -0.43960
