13
gdb 5048	3.4579	2.45812	1.68733	5.0055	68.42	-0.2555	-0.091	0.1645	750.5746	0.098006	-357.650966	-357.644848	-357.643904	-357.681153	23.278
N         -0.05980        0.93970       -0.68900
C         -0.01700       -0.03650        0.11490
N          1.16980       -0.55100        0.68090
C          1.50790       -1.75930        0.41200
C          0.73420       -2.76710       -0.29740
C         -0.61800       -2.79790       -0.33670
C         -1.47270       -1.82690        0.33180
N         -1.20940       -0.60390        0.60380
H          0.88940        1.25900       -0.89100
H          2.48190       -2.08560        0.78480
H          1.29160       -3.60960       -0.69850
H         -1.11240       -3.66420       -0.76840
H         -2.44140       -2.20300        0.66990
