17
gdb 17961	2.89805	2.43566	1.56165	1.6938	70.83	-0.2417	0.0115	0.2532	841.9517	0.14398	-363.855492	-363.848471	-363.847527	-363.88657	27.043
C         -0.00630        1.47970       -0.25370
C          1.34730        2.18660        0.01950
N          1.96860        2.07970        1.32830
C          1.35970        1.72140        2.36530
O          0.00970        1.47950        2.49480
C         -0.33750        0.09500        2.54260
C         -0.14820       -0.59590        1.22000
C         -0.00070       -0.00420        0.03330
H         -0.79530        1.97840        0.30980
H         -0.22380        1.63130       -1.31770
H          2.09210        1.81430       -0.69490
H          1.23580        3.25600       -0.20390
H          1.90970        1.61300        3.30480
H          0.24740       -0.41930        3.32240
H         -1.38610        0.06830        2.86260
H         -0.12940       -1.68250        1.27620
H          0.15730       -0.65180       -0.82680
