17
gdb 13258	5.34026	1.04676	0.99512	2.5825	65.09	-0.2496	0.0229	0.2725	1176.3815	0.142456	-400.997281	-400.988914	-400.98797	-401.031927	28.484
O          0.35030        1.11820       -1.26570
C          0.19220        1.48320       -0.11930
N          1.13890        1.40470        0.85230
C          2.46830        0.86710        0.59390
C          3.40760        1.87570       -0.06400
C          3.91710        3.01820        0.84170
O          5.24800        2.46430        0.86910
C          4.89320        1.45400       -0.09810
H         -0.75640        1.91600        0.25610
H          0.91940        1.76250        1.76730
H          2.88780        0.52570        1.54620
H          2.35510       -0.00410       -0.05870
H          2.98690        2.18890       -1.02020
H          3.89820        4.01810        0.38950
H          3.47500        3.07860        1.84570
H          5.11790        0.44140        0.26200
H          5.40030        1.60820       -1.05880
