17
gdb 17501	3.06942	2.39654	1.64192	3.4458	67.85	-0.2135	0.0644	0.2779	831.214	0.140298	-363.770328	-363.762758	-363.761814	-363.801565	29.445
C         -0.04090        1.56920        0.16090
C          0.08680        0.08210        0.05740
N         -0.86180       -0.86540        0.68720
C          0.58870       -0.93630        1.00810
C          1.30060       -1.69060       -0.16610
O          0.32680       -2.04270       -1.15230
C          0.81260       -0.69900       -1.12710
C          1.37430       -0.10360       -2.37590
H          0.89540        2.07070       -0.10760
H         -0.82510        1.95150       -0.50350
H         -0.29420        1.86790        1.18410
H         -1.29840       -0.35980        1.46020
H          0.96140       -0.82500        2.01810
H          2.21670       -2.26810       -0.12220
H          0.57290        0.18950       -3.06370
H          1.97060        0.78780       -2.15530
H          2.01100       -0.83150       -2.88580
