14
gdb 21039	3.73734	1.87333	1.26102	1.1035	62.18	-0.1953	0.0118	0.2072	914.5018	0.108357	-412.042003	-412.034119	-412.033175	-412.074171	28.153
C          0.07990        1.31900        0.01580
N         -0.02010       -0.11970        0.00230
N         -0.00370       -0.82010       -1.13930
C          0.09710       -2.08640       -0.74360
N          0.18520       -3.16810       -1.61390
C          0.15570       -2.09270        0.66570
O          0.23140       -3.19000        1.45090
N          0.09250       -0.84990        1.11690
H          1.12440        1.65180       -0.01740
H         -0.44680        1.70710       -0.85690
H         -0.38540        1.68990        0.92990
H         -0.18440       -2.95270       -2.53040
H         -0.23940       -4.00670       -1.24090
H          0.24030       -2.89250        2.36850
