20
gdb 17811	3.96373	1.41976	1.28869	2.0497	74.71	-0.2327	0.0766	0.3094	1045.7106	0.176472	-348.936819	-348.928805	-348.927861	-348.969205	30.859
C         -0.14040        1.49070        0.00170
C         -0.17040       -0.04480        0.05040
C         -1.61440       -0.56960        0.03820
C          0.61140       -0.62490       -1.12460
C          2.16610       -0.63950       -1.22180
C          2.24700       -1.77880       -0.17710
C          1.12530       -2.09380       -1.19620
O          2.04530       -1.67140       -2.27940
H          0.88370        1.87470        0.05020
H         -0.59120        1.86100       -0.92650
H         -0.70050        1.92130        0.83810
H          0.29280       -0.35950        0.99320
H         -2.12600       -0.28440       -0.88850
H         -1.64630       -1.66140        0.11300
H         -2.18890       -0.15900        0.87490
H          0.16610       -0.32300       -2.07900
H          2.86000        0.18210       -1.40460
H          3.13020       -2.41240       -0.26540
H          1.98130       -1.57040        0.86090
H          0.56870       -3.01950       -1.34830
