18
gdb 5253	6.9496	1.07941	0.94751	1.3819	75.52	-0.17	0.0577	0.2277	1231.2414	0.155397	-344.012149	-344.003974	-344.00303	-344.044892	30.543
C         -0.02240        1.52910        0.00160
C         -0.02370        0.00590        0.07830
N          0.85310       -0.46190        1.13910
C          0.90400       -1.84220        1.37650
C          0.44710       -2.85580        0.55600
N          0.76770       -4.05600        1.16330
C          1.40100       -3.82180        2.34960
C          1.50660       -2.46010        2.51440
H          0.99150        1.90840       -0.15630
H         -0.65610        1.87610       -0.81950
H         -0.40940        1.97130        0.92740
H         -1.05770       -0.36620        0.19860
H          0.34430       -0.40950       -0.86900
H          0.72350        0.06280        1.99470
H         -0.06330       -2.83010       -0.39120
H          0.55450       -4.96200        0.78860
H          1.72900       -4.63380        2.97850
H          1.96890       -1.95200        3.34720
