17
gdb 11555	5.27334	1.04825	0.98985	3.4371	65.32	-0.2517	-0.0335	0.2182	1197.5646	0.141192	-400.980561	-400.972079	-400.971135	-401.014674	30.006
O         -0.04620        1.15600        0.66570
C         -1.35030        0.67420        0.57400
C         -1.41840       -0.62330       -0.21090
O         -0.40300       -1.08340       -0.69310
C         -2.75450       -1.33270       -0.34100
C         -2.84340       -2.48570        0.65260
C         -3.31550       -3.81950        0.20140
N         -1.90340       -3.60660        0.55350
H          0.49370        0.51650        0.17370
H         -1.78860        0.49450        1.57130
H         -2.01780        1.40050        0.07730
H         -3.58500       -0.63640       -0.18040
H         -2.82000       -1.72000       -1.36290
H         -3.04860       -2.18190        1.67760
H         -3.86540       -4.46410        0.88110
H         -3.58890       -3.92780       -0.84550
H         -1.32920       -3.49800       -0.27980
