12
gdb 21587	3.50254	2.10556	1.31891	6.6687	59.48	-0.2457	-0.0625	0.1832	838.3447	0.084768	-410.839977	-410.833116	-410.832172	-410.871129	24.567
N          0.08010        1.41140        0.11300
C         -0.02960        0.03330        0.01240
C         -1.10040       -0.82030        0.02400
N         -0.63290       -2.11030       -0.02450
N          0.64750       -2.12580       -0.07460
N          1.06560       -0.80110       -0.03820
C          2.42250       -0.44340        0.03620
O          3.33400       -1.21230       -0.04490
H          0.66170        1.84630       -0.59240
H         -0.82210        1.86630        0.14500
H         -2.15400       -0.59660        0.05690
H          2.53570        0.64410        0.19300
