15
gdb 11843	5.76538	1.26998	1.24569	4.2753	66.17	-0.255	0.0007	0.2557	990.9833	0.11852	-362.635958	-362.628711	-362.627766	-362.668031	26.821
N         -0.61390       -1.03280       -0.65120
C         -0.28250        0.02970       -0.34060
C          0.11470        1.38180        0.06080
C         -0.14400        1.76140        1.54470
C          1.37450        1.87780        1.61150
C          2.24380        2.90000        2.25700
C          2.33680        1.43010        2.65530
O          1.53940        1.51620        0.22920
H         -0.27170        2.09720       -0.67360
H         -0.70040        2.68980        1.67860
H         -0.58590        0.96980        2.15010
H          3.05360        3.30560        1.66000
H          1.79270        3.60220        2.95090
H          1.94890        1.12450        3.62170
H          3.20570        0.87650        2.31650
