20
gdb 12116	2.95884	1.78301	1.6217	2.975	74.26	-0.2371	0.072	0.3091	935.7448	0.176918	-345.13532	-345.126746	-345.125802	-345.168223	32.802
C          0.28840        0.94450        1.14500
C         -0.00430       -0.01830        0.00630
C          0.68620        0.22610       -1.28920
N          1.08540       -0.90790       -0.43800
C         -1.36800       -0.67830        0.08190
C         -1.50190       -1.70820        1.18690
C         -2.54750        0.13060       -0.32850
N         -2.11370       -1.02200       -1.13790
H          1.27590        1.40240        1.02570
H         -0.45410        1.74810        1.18390
H          0.27160        0.43150        2.11230
H          0.24300       -0.05540       -2.24050
H          1.33770        1.09480       -1.35150
H          1.94590       -0.68660        0.05820
H         -1.38030       -1.25870        2.17820
H         -2.48600       -2.17970        1.14080
H         -0.74050       -2.48470        1.06480
H         -3.50040        0.00690        0.17980
H         -2.36910        1.13090       -0.71700
H         -1.62980       -0.69450       -1.96850
