13
gdb 8999	6.91107	0.97383	0.8838	4.1255	58.23	-0.2589	-0.1123	0.1466	1210.0393	0.091969	-435.727751	-435.719286	-435.718342	-435.762112	27.649
N          0.06170        1.07990        0.22570
C         -0.23940       -0.09780       -0.09670
O         -0.30720       -1.05170        0.86850
C         -0.68430       -2.33980        0.46210
C         -2.15160       -2.45040        0.05940
O         -2.86830       -1.50230       -0.11440
C         -2.66930       -3.89660       -0.14490
O         -3.79140       -4.12670       -0.49690
H          0.08820        1.67430       -0.59980
H         -0.44500       -0.47710       -1.10510
H         -0.07010       -2.71250       -0.37640
H         -0.48670       -3.00700        1.30900
H         -1.93280       -4.70670        0.05660
