20
gdb 11912	4.10615	1.55766	1.3018	1.3059	75.41	-0.2258	0.0857	0.3115	1019.4742	0.177305	-349.006733	-348.998732	-348.997788	-349.040043	30.673
C         -0.05730        1.49990       -0.01270
C          0.19430        0.00330       -0.00410
C          0.81470       -0.58140       -1.28330
C          1.52690       -1.85120       -0.76970
C          1.65950       -1.58770        0.73610
C          1.42800       -2.66100        1.76760
C          2.80350       -2.03670        1.58230
O          1.15540       -0.29900        1.00720
H          0.87120        2.04060       -0.22130
H         -0.79350        1.75940       -0.77990
H         -0.43920        1.83360        0.95620
H         -0.74700       -0.52960        0.21800
H          0.07200       -0.78660       -2.05850
H          1.53970        0.13150       -1.69000
H          0.92910       -2.74830       -0.95640
H          2.49830       -1.99870       -1.24940
H          0.87420       -2.37940        2.65630
H          1.27360       -3.68240        1.43330
H          3.58570       -2.62990        1.11970
H          3.14570       -1.35100        2.34960
