15
gdb 4583	5.72107	1.5251	1.20731	2.662	73.8	-0.1825	-0.0086	0.1739	954.2156	0.122029	-358.906545	-358.899455	-358.89851	-358.937344	27.832
N         -0.01540        1.42490        0.12020
C          0.01800        0.02170        0.04380
C         -1.15020       -0.74240        0.04250
N         -1.18020       -2.07600        0.03220
C         -0.02280       -2.73950        0.03070
N         -0.09910       -4.13130        0.08870
C          1.21180       -2.07160        0.02700
C          1.22530       -0.68840        0.03140
H          0.76100        1.87450       -0.34630
H         -0.88700        1.82220       -0.20470
H         -2.11910       -0.24360        0.04580
H         -1.01400       -4.47060       -0.17430
H          0.64500       -4.62360       -0.38360
H          2.14010       -2.63320        0.02690
H          2.17010       -0.15200        0.03220
