12
gdb 14602	5.8906	0.77918	0.70468	3.7675	73.13	-0.2637	-0.0419	0.2218	1470.3476	0.080875	-381.296868	-381.288556	-381.287612	-381.331033	27.958
O          0.45700        0.10120       -0.18110
C          0.52240        1.28600       -0.28960
O          0.59990        2.10750        0.78190
C          0.71130        3.51450        0.50680
C          2.08530        3.93280        0.27800
C          3.22700        4.28110        0.08310
C          4.51100        4.67230       -0.13610
C          5.65030        5.01990       -0.33160
H          0.51480        1.83210       -1.25290
H          0.08210        3.78190       -0.35290
H          0.29540        4.01370        1.38650
H          6.65360        5.32400       -0.50190
