22
gdb 6274	3.512	1.0217	0.9485	0.7998	84.55	-0.2559	0.0559	0.3117	1359.2234	0.19731	-313.050656	-313.04036	-313.039416	-313.085833	37.811
C         -0.07900        1.53450        0.12350
C         -0.06600        0.00400        0.00130
C         -1.49960       -0.54120       -0.07440
C          0.74040       -0.48600       -1.21570
C          2.24560       -0.11640       -1.23580
C          3.02940       -0.71980       -0.05220
C          2.84020       -0.53280       -2.50600
C          3.32020       -0.89680       -3.54680
H          0.92280        1.95000        0.26940
H         -0.50240        1.99430       -0.77790
H         -0.69040        1.85140        0.97480
H          0.39280       -0.40540        0.91130
H         -2.01660       -0.16200       -0.96410
H         -1.50890       -1.63500       -0.12610
H         -2.08370       -0.24080        0.80160
H          0.66070       -1.57820       -1.28430
H          0.27840       -0.08910       -2.12860
H          2.33330        0.97670       -1.17680
H          4.09100       -0.47060       -0.12610
H          2.65570       -0.33800        0.90190
H          2.93810       -1.81060       -0.04680
H          3.74790       -1.20600       -4.46800
