15
gdb 5264	7.3215	1.12737	0.98909	1.0283	62.94	-0.2392	0.007	0.2463	1138.1036	0.119225	-399.813942	-399.80637	-399.805426	-399.846849	26.059
C         -0.00050        1.39650        0.03260
O          0.00020       -0.01090       -0.00340
C          0.65980       -0.58540        1.10030
C          0.60580       -2.06960        0.96520
C          0.04710       -2.82400       -0.00980
O          0.25470       -4.14150        0.30630
C          0.93620       -4.10030        1.47020
N          1.17770       -2.91130        1.91560
H          1.02210        1.80530        0.02170
H         -0.53040        1.74500       -0.85680
H         -0.51440        1.78140        0.92750
H          1.71060       -0.25110        1.15260
H          0.18760       -0.27740        2.04930
H         -0.48860       -2.61490       -0.91730
H          1.20920       -5.04730        1.90850
