20
gdb 11916	4.27543	1.41627	1.21593	1.4188	74.61	-0.2592	0.0742	0.3334	1047.8274	0.178161	-349.004253	-348.996367	-348.995423	-349.037089	30.783
O          0.05760        1.36160       -0.21090
C         -0.01060       -0.03740        0.00400
C          0.63670       -0.52840        1.31050
C          0.00420       -1.91500        1.51960
C         -1.42000       -1.77700        0.94810
C         -2.17580       -3.00070        0.49680
C         -2.62110       -2.24820        1.72720
C         -1.47610       -0.46520        0.15560
H          0.98260        1.60090       -0.32490
H          0.44200       -0.57750       -0.84460
H          1.73070       -0.55250        1.27060
H          0.34450        0.16030        2.11220
H          0.56570       -2.67200        0.95830
H          0.01030       -2.22680        2.56830
H         -2.78690       -2.92700       -0.39740
H         -1.70470       -3.96950        0.63420
H         -2.45480       -2.70890        2.69620
H         -3.53220       -1.66100        1.66490
H         -1.99060        0.31960        0.72340
H         -1.98650       -0.56250       -0.80650
