14
gdb 21215	3.56847	1.87332	1.24213	0.7791	60.44	-0.1941	0.0136	0.2077	921.4256	0.108506	-412.033997	-412.026017	-412.025072	-412.066496	27.912
C         -0.07500        1.47630       -0.08720
N          0.19280        0.05890        0.09890
C          0.66240       -0.66120       -0.98190
N          1.17330       -0.11920       -2.08490
N          1.51900       -1.18150       -2.82430
N          1.29990       -2.37780       -2.27030
C          0.74490       -2.06980       -1.11250
O          0.30580       -2.96900       -0.20510
H          0.85040        1.98620       -0.36710
H         -0.81770        1.68100       -0.87270
H         -0.42940        1.89470        0.85750
H         -0.51640       -0.43860        0.61740
H          2.05890       -1.08290       -3.66530
H          0.47120       -3.85020       -0.56130
