18
gdb 12853	2.86087	2.432	1.82795	1.3324	66.41	-0.2513	0.0811	0.3324	811.6559	0.154506	-384.937897	-384.930708	-384.929764	-384.969209	27.869
C         -0.20200        1.57340        0.18190
C          0.09430        0.09830        0.03170
C         -1.10260       -0.90170        0.15150
C         -0.37270       -1.64280        1.30990
C          0.84180       -0.68130        1.16530
O          1.99710       -1.21360        0.54350
C          1.72730       -1.21730       -0.84240
O          0.91880       -0.09730       -1.11320
H          0.72850        2.14500        0.24660
H         -0.77130        1.93890       -0.67890
H         -0.79310        1.75940        1.08380
H         -2.05010       -0.43240        0.42630
H         -1.25940       -1.49140       -0.75450
H         -0.87190       -1.57290        2.27920
H         -0.12450       -2.69010        1.12410
H          1.15720       -0.14230        2.06090
H          2.66850       -1.12470       -1.39140
H          1.21290       -2.15060       -1.13470
