14
gdb 10666	2.95224	1.97737	1.34319	1.9352	64.39	-0.254	-0.0316	0.2224	905.5096	0.103124	-382.495201	-382.486843	-382.485898	-382.528233	29.727
C         -0.83060        1.11800        0.20140
C          0.35780        0.24380       -0.13610
O          1.35750        0.19320        0.53580
C          0.25420       -0.58830       -1.41120
C         -0.90650       -1.51010       -1.55110
O         -0.87040       -0.28770       -2.26180
C          1.49280       -0.90950       -2.07040
C          2.52670       -1.16300       -2.62580
H         -0.92890        1.90330       -0.55560
H         -1.77060        0.55950        0.18910
H         -0.67190        1.56510        1.18300
H         -0.76780       -2.41130       -2.14460
H         -1.63900       -1.57650       -0.74790
H          3.44400       -1.38560       -3.11290
