13
gdb 1604	4.39295	2.05821	1.5127	3.1403	57.48	-0.2721	-0.073	0.1991	781.4962	0.09863	-344.433172	-344.425428	-344.424484	-344.465061	27.32
C         -0.04470        1.56140       -0.16040
C          0.09020        0.04810        0.06140
O          0.77390       -0.22300        1.25280
C         -1.27410       -0.64130        0.09110
O         -1.62070       -1.27110        1.07190
C         -2.10530       -0.52510       -1.08500
C         -2.77810       -0.42720       -2.07820
H          0.95200        2.00850       -0.15560
H         -0.52560        1.78120       -1.11720
H         -0.62800        2.01310        0.64710
H          0.63400       -0.38270       -0.79790
H          0.17970       -0.78590        1.77470
H         -3.38420       -0.34870       -2.94850
