15
gdb 285	4.90809	2.61486	2.52356	3.4399	53.35	-0.2409	0.0371	0.278	617.1359	0.130071	-287.737498	-287.729645	-287.728701	-287.770224	26.737
C         -0.33270        1.62340       -0.18530
C          0.05210        0.14280       -0.03820
C         -1.18080       -0.72880        0.24570
C          0.71260       -0.33170       -1.33740
N          2.00690       -0.74880       -1.22340
O          0.12070       -0.33390       -2.40050
H          0.54870        2.25460       -0.33710
H         -0.99210        1.75010       -1.04810
H         -0.85390        1.97590        0.71000
H          0.76160        0.03990        0.79310
H         -1.86600       -0.68750       -0.60520
H         -0.90440       -1.77570        0.40700
H         -1.70560       -0.37370        1.13800
H          2.49960       -0.74880       -0.34870
H          2.48300       -1.06590       -2.05230
