18
gdb 17524	4.48274	1.68314	1.56428	1.5407	71.01	-0.2421	0.0676	0.3097	875.6924	0.1547	-347.745262	-347.738171	-347.737227	-347.776485	27.938
O         -0.06840        1.41320        0.04000
C          0.04070       -0.00450       -0.00830
C         -1.35030       -0.56760        0.00650
C         -2.26860       -0.41980        1.25540
C         -2.94600       -1.70090        0.77750
C         -2.98230       -1.65170       -0.75940
C         -2.32630       -0.34150       -1.18570
C         -1.73920       -2.10760       -0.03370
H          0.81920        1.78310        0.03230
H          0.56630       -0.33380       -0.92020
H          0.60820       -0.39100        0.85480
H         -1.71050       -0.58600        2.18190
H         -2.85710        0.50030        1.33870
H         -3.61800       -2.34960        1.32520
H         -3.68030       -2.26500       -1.31520
H         -2.91660        0.58110       -1.18220
H         -1.81260       -0.44730       -2.14630
H         -1.16350       -3.02100       -0.07660
