17
gdb 6327	5.03323	1.12759	0.93471	2.0027	70.98	-0.2347	0.0076	0.2423	1223.1645	0.140997	-397.230977	-397.221359	-397.220415	-397.266593	33.099
C         -0.45670        1.80750        0.78010
N         -0.74150        0.39670        0.59060
C          0.20330       -0.45740        0.58880
C          1.67810       -0.21270        0.76980
N         -0.21950       -1.78480        0.41330
C          0.53380       -2.93160        0.22140
N         -0.25300       -4.06170        0.05530
O          1.74700       -2.96840        0.16000
H          0.22960        2.21240        0.02370
H         -1.39360        2.36610        0.70430
H         -0.02660        2.02340        1.76830
H          2.07430       -0.82620        1.58200
H          2.23000       -0.51070       -0.12410
H          1.86290        0.83950        0.98350
H         -1.22140       -1.83820        0.29290
H         -1.15240       -4.10140        0.50970
H          0.27950       -4.91660        0.10280
