15
gdb 3652	3.59338	3.22394	1.73597	2.6618	63.03	-0.2217	0.0291	0.2508	721.2685	0.12621	-304.733723	-304.726411	-304.725467	-304.76592	25.376
C          0.00060        1.51240        0.10880
C          0.00340        0.02620       -0.03940
C         -0.00250       -0.78950       -1.16070
C         -0.01790       -0.37720       -2.60120
C          0.02510       -2.10220       -0.63360
N          0.04550       -2.11880        0.69500
N          0.03580       -0.81410        1.02970
H          1.01370        1.91920        0.21580
H         -0.44720        1.98270       -0.77050
H         -0.57620        1.82900        0.98440
H          0.99000       -0.19080       -2.99230
H         -0.46680       -1.15580       -3.22520
H         -0.59680        0.53970       -2.75590
H          0.02310       -3.03490       -1.18060
H          0.03120       -0.56120        2.00350
