18
gdb 13532	2.76379	1.73494	1.19704	1.2618	73.45	-0.2562	0.0496	0.3059	1034.7253	0.15158	-347.753542	-347.74467	-347.743726	-347.78691	33.137
C          0.00060        1.47560       -0.16730
C          0.00190       -0.05370        0.01860
C          0.74810       -0.45120        1.21710
C          1.34060       -0.79860        2.20530
C         -1.41450       -0.62060        0.07010
C         -2.06320       -1.15670       -1.19020
C         -1.61560       -2.10310       -0.11470
O         -0.50670       -2.90360       -0.40560
H          1.02080        1.86220       -0.23640
H         -0.53730        1.73900       -1.08270
H         -0.49240        1.96840        0.67600
H          0.50850       -0.50550       -0.84240
H          1.87390       -1.09030        3.07610
H         -2.06100       -0.12970        0.79280
H         -3.12550       -1.00190       -1.34140
H         -1.46760       -1.14890       -2.09720
H         -2.38460       -2.58800        0.48610
H          0.07030       -2.88950        0.36800
