18
gdb 8501	3.81471	2.05808	1.62711	1.41	72.21	-0.251	0.0821	0.3331	842.1383	0.153309	-347.736817	-347.729573	-347.728629	-347.767552	29.184
C         -0.01200        1.45370       -0.02780
C          0.03430       -0.04780       -0.05680
C          0.58290       -0.96340       -1.17880
C          0.07430       -1.92530       -0.08980
O          0.00990       -3.30600       -0.09960
C          0.55530       -0.99400        1.08680
C         -0.82440       -1.05450        1.77300
C         -1.15170       -1.03590        0.26560
H          0.99480        1.88030       -0.09860
H         -0.59840        1.84650       -0.86580
H         -0.46600        1.82030        0.89920
H          0.03710       -0.96000       -2.12880
H          1.66520       -0.92980       -1.35230
H          0.90680       -3.65210       -0.16090
H          1.55430       -0.96820        1.52830
H         -1.06240       -1.97650        2.31000
H         -1.12700       -0.18020        2.35770
H         -2.11900       -1.05550       -0.23980
