16
gdb 18373	3.29804	2.27762	1.62924	1.8328	59.49	-0.2469	0.0495	0.2964	798.0166	0.131563	-420.846847	-420.839945	-420.839001	-420.877976	26.041
O         -0.04200        1.44370       -0.00980
C         -0.00250        0.03800        0.06180
C          0.51140       -0.53860        1.39730
O         -0.03070       -1.85450        1.46470
C         -1.32050       -1.82350        0.87900
C         -2.42550       -1.13540        1.70790
O         -2.34990        0.05530        0.89140
C         -1.40750       -0.56120       -0.01100
H          0.86210        1.76850       -0.05990
H          0.58080       -0.39680       -0.76600
H          1.59950       -0.62490        1.45990
H          0.15470        0.09930        2.21880
H         -1.53710       -2.81190        0.47320
H         -3.41400       -1.60770        1.64600
H         -2.17270       -0.94700        2.75750
H         -1.80470       -0.63720       -1.02710
