16
gdb 2919	6.27303	1.96119	1.57419	2.6693	63.66	-0.2397	0.0355	0.2752	802.9894	0.137796	-325.798888	-325.791717	-325.790773	-325.83106	25.076
C         -0.03920        1.42910        0.05280
N         -0.03970       -0.02520        0.05140
C          0.55390       -0.64970        0.96860
C          0.62450       -2.15640        1.10880
C          1.83570       -2.35700        2.02980
C          1.80020       -1.07040        2.86530
O          1.24810       -0.06610        2.00250
H          0.67580        1.88080        0.74960
H          0.17860        1.78460       -0.96010
H         -1.04300        1.79270        0.30580
H         -0.29600       -2.51580        1.58440
H          0.70360       -2.63870        0.13470
H          1.78040       -3.25670        2.64560
H          2.75930       -2.40010        1.44420
H          1.15390       -1.17690        3.74660
H          2.78360       -0.72710        3.19560
