11
gdb 23768	3.36026	2.36879	1.38937	3.2049	55.85	-0.2463	-0.0517	0.1946	777.0408	0.074074	-438.7429	-438.736997	-438.736052	-438.773063	22.002
F         -0.02080        0.02790        0.00450
C         -0.03890        1.35340        0.01110
C         -1.20250        2.04980        0.02970
N         -1.26400        3.42300        0.03710
C         -0.12900        4.04270        0.02530
N          1.07840        3.41720        0.00640
C          1.25610        2.01820       -0.00270
O          2.35610        1.50940       -0.01950
H         -2.14900        1.51810        0.03950
H         -0.10120        5.12880        0.03020
H          1.93600        3.95550       -0.00220
