14
gdb 469	7.02085	3.30173	2.50629	1.2942	49.23	-0.2502	0.0904	0.3406	539.3012	0.120486	-307.569255	-307.563241	-307.562296	-307.599195	20.939
C         -0.15080        1.55560        0.06670
C          0.08210        0.05520        0.00040
C          0.90470       -0.42830       -1.20340
O          1.58700       -1.56220       -0.69260
C          1.89910       -1.22190        0.63470
O          0.86840       -0.37990        1.11740
H          0.80060        2.09570        0.03840
H         -0.76670        1.88560       -0.77690
H         -0.67000        1.82210        0.99100
H         -0.88150       -0.47430        0.02770
H          0.30060       -0.74240       -2.05690
H          1.61450        0.34980       -1.52930
H          1.95000       -2.14250        1.22710
H          2.86450       -0.68710        0.68980
