18
gdb 8690	2.49591	1.74086	1.43886	1.8264	69.79	-0.2559	0.0278	0.2836	979.3692	0.149929	-384.890881	-384.88118	-384.880236	-384.924838	35.106
C         -0.03820        1.38610        0.07400
O         -0.14120       -0.01300       -0.14060
C          0.64130       -0.57380       -1.21140
C          0.58100       -2.09050       -0.98710
C         -0.02850       -0.18830       -2.55680
O         -1.39660       -0.52590       -2.54790
C          2.03070       -0.10380       -1.19610
C          3.16980        0.28030       -1.22070
H          0.99400        1.68670        0.28660
H         -0.40580        1.97300       -0.77900
H         -0.66360        1.60460        0.94270
H         -0.45320       -2.42670       -1.08350
H          1.19290       -2.60720       -1.73040
H          0.95150       -2.33330        0.01050
H          0.12750        0.88440       -2.74600
H          0.44780       -0.73870       -3.37340
H         -1.72590       -0.26240       -1.67860
H          4.17920        0.61130       -1.23620
