17
gdb 10711	2.48248	2.05254	1.44662	2.0971	64.18	-0.2459	0.0169	0.2627	930.3439	0.140958	-401.021636	-401.012991	-401.012047	-401.054905	31.542
C         -0.25600        1.31250        0.42010
C          0.29280       -0.10440        0.21600
C          0.76180       -0.34980       -1.20070
C          0.51590       -1.63840       -1.87550
O         -0.26050       -0.48480       -2.20750
C          1.98580        0.44360       -1.63410
N          2.00230        0.75810       -2.95670
O          2.86730        0.72970       -0.84570
H          0.52150        2.06120        0.24270
H         -1.08960        1.50960       -0.26110
H         -0.61740        1.44200        1.44410
H          1.14560       -0.27540        0.87980
H         -0.47560       -0.84540        0.45950
H          1.19700       -1.98150       -2.65190
H         -0.01900       -2.41990       -1.33820
H          1.16170        0.63920       -3.49820
H          2.74660        1.34240       -3.29910
