17
gdb 12269	3.3763	1.46114	1.20041	2.6317	66.56	-0.2423	0.0246	0.2669	1049.1738	0.141409	-401.016868	-401.008121	-401.007176	-401.050919	30.344
C          0.15830        1.55130       -0.07640
C         -0.06630        0.05370        0.15140
N          0.68650       -0.47520        1.26690
C          2.13000       -0.59970        1.51970
C          1.76470       -1.20740        2.90190
O          2.24640       -0.46910        3.99610
C          0.29300       -0.92830        2.49760
O         -0.78170       -1.02240        3.03690
H          1.20920        1.76760       -0.29350
H         -0.43670        1.89750       -0.92690
H         -0.13380        2.12630        0.80690
H         -1.11820       -0.14690        0.37710
H          0.18760       -0.50840       -0.75740
H          2.65270       -1.26230        0.82190
H          2.65780        0.35480        1.60500
H          1.99770       -2.27760        2.98650
H          1.60870       -0.57170        4.71190
