20
gdb 19291	3.16522	1.81653	1.41373	1.0878	74.88	-0.2407	0.0815	0.3222	971.2043	0.176585	-348.966458	-348.958048	-348.957103	-348.999168	31.387
C         -0.09160        1.35220        0.00650
O          0.25660       -0.00840        0.13350
C          0.70670       -0.59840       -1.06260
C          1.37520       -1.95030       -0.87120
C          0.39110       -2.95880       -0.34730
C          0.35220       -2.60710       -1.80650
C         -0.35550       -1.26320       -2.03520
C         -1.84110       -1.15450       -1.71100
H          0.75980        1.95510       -0.34720
H         -0.93230        1.50860       -0.68450
H         -0.38470        1.70640        0.99810
H          1.34860        0.10750       -1.60840
H          2.44490       -2.10730       -0.80660
H          0.81850       -3.93010       -0.11980
H         -0.39800       -2.65250        0.33160
H          0.53540       -3.34780       -2.57560
H         -0.17540       -0.90990       -3.05560
H         -2.04440       -1.37270       -0.65960
H         -2.22170       -0.14880       -1.91880
H         -2.41890       -1.85810       -2.32050
