15
gdb 11258	5.42107	1.29194	1.14114	3.2623	66.76	-0.2744	-0.017	0.2575	1006.7952	0.11995	-362.682758	-362.675389	-362.674445	-362.714749	27.174
O         -0.32360        1.54700       -0.48690
C          0.08040        0.27410        0.01140
C         -1.09480       -0.69080        0.31960
C         -1.13510       -1.70140       -0.86760
C          0.23820       -1.53410       -1.50460
C          0.89610       -0.49120       -1.00500
C         -1.40860       -3.07550       -0.44530
N         -1.62130       -4.16240       -0.11420
H         -0.64350        1.42280       -1.38750
H          0.64240        0.50840        0.92020
H         -0.89740       -1.23380        1.24660
H         -2.03140       -0.14400        0.44170
H         -1.91660       -1.43620       -1.59310
H          0.58560       -2.20270       -2.28310
H          1.87370       -0.15230       -1.32790
