20
gdb 10851	4.60284	1.42148	1.14336	1.1151	78.07	-0.2333	0.0291	0.2624	1098.2106	0.177065	-349.026545	-349.018238	-349.017294	-349.058838	31.598
C         -0.02980        1.52560        0.08480
C          0.02750        0.00960       -0.02050
C          0.75970       -0.48910       -1.27200
C          1.06570       -1.95890       -1.15780
C          1.00220       -2.61400        0.00160
C          1.25150       -4.08810        0.14700
C          0.65330       -1.87140        1.27030
O          0.68920       -0.46600        1.14710
H          0.98190        1.93900        0.14430
H         -0.52990        1.95420       -0.78910
H         -0.57560        1.82720        0.98280
H         -0.99980       -0.39560       -0.03780
H          0.14110       -0.29740       -2.15860
H          1.68490        0.08840       -1.41420
H          1.33900       -2.49080       -2.06680
H          1.46200       -4.55470       -0.81900
H          2.10000       -4.28690        0.81460
H          0.38420       -4.59840        0.58650
H         -0.34000       -2.20550        1.62810
H          1.36930       -2.12470        2.06270
