17
gdb 16236	3.10821	2.25876	1.55387	1.6343	68.85	-0.2282	0.0238	0.252	851.3432	0.142952	-363.869661	-363.862421	-363.861477	-363.901366	27.716
C         -0.25170        1.50660        0.02200
C          0.05970        0.01920       -0.02820
O          1.04410       -0.22320       -1.07740
C          2.09040       -0.83000       -0.46890
N          2.04140       -1.07440        0.77440
C          0.74750       -0.58810        1.21190
C          0.63180       -0.03880        2.60990
C          0.01450       -1.37320        2.26510
H          0.63190        2.07880        0.31850
H         -0.58550        1.85690       -0.95840
H         -1.05070        1.70450        0.74330
H         -0.83750       -0.54560       -0.30640
H          2.92020       -1.06450       -1.12570
H          1.53860       -0.03600        3.20310
H         -0.02830        0.80420        2.78220
H         -1.06730       -1.43180        2.18840
H          0.49690       -2.27150        2.63240
