16
gdb 20871	6.74975	1.04119	0.9604	3.6628	66.8	-0.2671	-0.0363	0.2308	1209.3795	0.130193	-379.909579	-379.901828	-379.900884	-379.942593	27.457
C         -0.03410        1.56930       -0.01910
C          0.13270        0.04980       -0.07970
C          0.64770       -0.54040        1.24640
C          0.77480       -2.02760        1.21800
C          1.85520       -2.85090        1.25260
O          1.45200       -4.11840        1.18690
N          0.02510       -4.07310        1.10600
N         -0.32190       -2.86650        1.12590
H          0.91710        2.06660        0.20180
H         -0.40250        1.96390       -0.97050
H         -0.74750        1.85870        0.76040
H         -0.82390       -0.42430       -0.32630
H          0.82720       -0.22040       -0.88440
H          1.62260       -0.10520        1.49410
H         -0.03620       -0.25630        2.05580
H          2.91620       -2.67530        1.32340
