17
gdb 7654	3.93229	1.5814	1.37826	11.7255	65.18	-0.1772	-0.0034	0.1737	931.1771	0.143771	-400.962216	-400.954534	-400.95359	-400.994963	28.223
C          0.77780        1.35970        0.17010
N          0.09130        0.04440        0.01490
H         -0.90040        0.19400       -0.15540
C          0.34780       -0.98830        1.12430
C          1.18390       -1.85480        0.15720
C          0.71970       -0.93280       -0.99160
C          2.73530       -1.68780        0.43420
O          3.38620       -2.72500        0.52130
O          3.06890       -0.47480        0.52450
H          1.83190        1.11490        0.34890
H          0.63740        1.93300       -0.74900
H          0.32750        1.88670        1.01430
H          0.90380       -0.53110        1.94150
H         -0.60690       -1.39480        1.46370
H          0.88290       -2.89720        0.07690
H         -0.05860       -1.31300       -1.65630
H          1.51670       -0.43960       -1.54600
