16
gdb 2308	6.73733	1.40222	1.27416	4.2444	65.09	-0.2898	0.0384	0.3283	942.6876	0.136654	-288.648208	-288.640648	-288.639704	-288.680203	27.03
C          0.07780        1.56810       -0.17710
C          0.04040        0.06480       -0.00240
C          1.30500       -0.75960       -0.03850
C          0.52330       -0.64010        1.24640
C          1.09000        0.12400        2.43450
C          1.98210       -0.70420        3.24860
N          2.68000       -1.36850        3.88650
H          0.99120        2.01030        0.23170
H          0.04480        1.82910       -1.24010
H         -0.77630        2.05270        0.30920
H         -0.82960       -0.40060       -0.45870
H          1.30890       -1.71060       -0.55880
H          2.24570       -0.21980       -0.09880
H         -0.04490       -1.51690        1.54210
H          1.65120        1.00380        2.10460
H          0.28260        0.49280        3.07900
