10
gdb 23681	3.97905	1.9356	1.30217	3.0388	50.35	-0.2873	-0.0537	0.2336	794.454	0.061369	-462.773897	-462.768376	-462.767432	-462.803836	20.406
F         -0.02700        0.06320        0.00370
C         -0.01990        1.38220        0.01090
N         -1.19550        1.97140        0.02990
C         -1.14650        3.29560        0.03660
F         -2.31580        3.89730        0.05560
N         -0.09100        4.08480        0.02690
C          1.08520        3.44430        0.00760
C          1.19390        2.06240       -0.00150
H          1.97210        4.07160       -0.00070
H          2.14110        1.54220       -0.01710
