14
gdb 20820	5.03747	1.54734	1.30106	5.096	65.	-0.254	-0.0886	0.1654	926.1995	0.106697	-374.854433	-374.847197	-374.846253	-374.886858	25.345
C          0.21190        1.52010        0.21180
C         -0.13790        0.05310       -0.10050
C          0.64660       -0.46710       -1.26990
C          1.77980       -1.27320       -1.15200
N          2.44800       -1.67330       -2.22130
N          2.01120       -1.28530       -3.41910
N          0.94010       -0.53510       -3.54490
N          0.24570       -0.11790       -2.49140
H          1.26740        1.62860        0.48010
H          0.01390        2.15170       -0.65810
H         -0.39090        1.88300        1.04820
H          0.05370       -0.57620        0.77500
H         -1.20210       -0.02400       -0.34340
H          2.15650       -1.60850       -0.18880
