18
gdb 13221	2.9599	1.54985	1.08334	1.9357	63.35	-0.2421	0.0495	0.2916	1073.2837	0.152768	-422.037475	-422.028625	-422.027681	-422.071577	31.236
O          0.48380        0.22830        0.89710
C         -0.11450        0.19150       -0.38900
C         -1.47120       -0.52680       -0.41070
O         -2.02340       -0.47740       -1.72340
C         -1.39210       -1.95660        0.10510
C         -1.28130       -2.19960        1.62700
O         -2.47700       -3.00570        1.63110
C         -2.72210       -2.72930        0.23620
H         -0.00920        0.85370        1.43740
H         -0.23720        1.19550       -0.81900
H          0.58990       -0.35430       -1.03060
H         -2.18270        0.03640        0.20970
H         -1.45740       -1.00160       -2.30170
H         -0.63430       -2.50750       -0.46410
H         -0.40200       -2.75520        1.96940
H         -1.39100       -1.30080        2.24660
H         -3.62000       -2.11580        0.08470
H         -2.81830       -3.64780       -0.35450
