16
gdb 18506	5.65323	1.25471	1.17195	4.038	66.82	-0.239	0.0343	0.2733	1022.5268	0.132147	-379.899089	-379.891901	-379.890957	-379.931261	26.638
O         -0.16660        0.01180        0.22240
C         -0.02660        1.20960        0.08370
N          1.15660        1.84490       -0.12040
C          2.42670        1.17150       -0.18170
C          3.27590        1.28990       -1.50970
C          4.36510        1.98590       -0.69340
N          3.72130        3.18710       -0.10230
C          3.57550        1.86570        0.56140
H         -0.87440        1.92300        0.11120
H          1.17700        2.84940       -0.21530
H          2.26660        0.13580        0.11360
H          3.56940        0.31050       -1.89260
H          2.83370        1.88630       -2.31100
H          5.43690        1.94930       -0.83830
H          4.43890        3.70060        0.40770
H          3.88750        1.72280        1.58870
