17
gdb 5622	3.15527	1.85078	1.18636	1.8544	71.12	-0.188	0.0364	0.2244	1007.8373	0.142623	-363.884164	-363.876046	-363.875102	-363.916573	29.854
C          0.04900        1.41800        0.05900
N         -0.11040       -0.02170       -0.03580
C          0.57790       -0.67220       -1.05830
C          1.20790       -0.13470       -2.14380
O          1.69380       -1.13340       -2.94740
C          1.37590       -2.30490       -2.34860
C          0.69180       -2.10640       -1.19130
C          0.14940       -3.13010       -0.24560
H          1.10060        1.74010        0.13860
H         -0.37810        1.89120       -0.83240
H         -0.49870        1.78790        0.92890
H         -0.01140       -0.48830        0.85530
H          1.37600        0.87050       -2.48760
H          1.69660       -3.19930       -2.85880
H          0.61300       -3.05970        0.74730
H         -0.93120       -3.01070       -0.10340
H          0.32910       -4.14290       -0.61600
