17
gdb 2266	3.59395	2.70874	2.08046	1.1359	63.73	-0.2444	0.0808	0.3251	711.0096	0.14786	-309.68896	-309.681821	-309.680877	-309.719504	27.502
C         -0.12530        1.58150        0.00840
C          0.06020        0.06940       -0.00070
C          1.17070       -0.57870       -0.90380
C          1.72360       -1.31430        0.32290
C          2.15910       -0.29950        1.35770
C          0.69870       -0.62720        1.21210
O         -0.03580       -1.19150        2.24320
H          0.81400        2.10330        0.22090
H         -0.49050        1.94070       -0.96000
H         -0.85540        1.88430        0.76790
H         -0.89670       -0.42070       -0.20740
H          0.76280       -1.23590       -1.67450
H          1.86580        0.12530       -1.37490
H          2.07680       -2.33750        0.34850
H          2.61330       -0.72980        2.24500
H          2.57620        0.65930        1.05580
H         -0.07610       -0.55930        2.96870
