17
gdb 3246	5.67677	2.3067	2.08729	0.2813	68.14	-0.2413	0.0996	0.3409	696.5879	0.149503	-272.536448	-272.530323	-272.529379	-272.566006	24.752
C         -0.05960        1.50060       -0.04430
C          1.26020        0.75750        0.01220
C         -0.03040       -0.00040       -0.01640
C         -0.54200       -0.95730        1.08450
C         -1.00350       -1.91820       -0.02310
C         -1.95410       -1.23010       -0.96270
C         -0.47880       -0.96240       -1.09990
H         -0.38610        2.02220        0.84990
H         -0.32970        1.99380       -0.97270
H          1.87760        0.75000       -0.88090
H          1.82340        0.78090        0.94030
H          0.27270       -1.36340        1.69080
H         -1.32560       -0.57980        1.75120
H         -0.92370       -2.99740        0.01750
H         -2.38580       -1.86400       -1.73120
H         -2.61910       -0.44870       -0.60120
H          0.06980       -1.18790       -2.00730
