17
gdb 12497	3.55788	1.88743	1.33068	4.6402	64.81	-0.2472	0.0393	0.2865	915.0914	0.145234	-401.048429	-401.041263	-401.040319	-401.080016	27.14
O          0.06230        0.03070       -0.57280
C          0.05350        1.14850       -0.12280
N         -1.10150        1.82690        0.20770
C         -1.27710        3.27610        0.06930
C         -0.65430        4.08190        1.21070
C          0.87330        4.00160        1.23150
C          1.40060        2.57290        1.30190
O          1.21520        1.82870        0.08610
H         -1.90890        1.27210       -0.03520
H         -0.87660        3.62590       -0.89290
H         -2.35580        3.45300        0.04930
H         -0.96720        5.12740        1.10820
H         -1.06100        3.71540        2.16130
H          1.29040        4.47960        0.33640
H          1.26350        4.55150        2.09640
H          2.48330        2.57710        1.45170
H          0.94370        2.02760        2.13660
