16
gdb 3476	4.48841	2.98136	2.72533	1.6226	63.98	-0.2202	0.0946	0.3148	610.194	0.138282	-288.567911	-288.562018	-288.561073	-288.597172	23.36
C         -0.04160        1.53080       -0.01600
C         -0.03060        0.04330       -0.02950
C          0.00580       -1.02430       -1.08580
C          1.25940       -1.58450       -0.44220
N          0.89010       -0.86610        0.84140
C         -0.36630       -1.61190        1.24800
C         -1.06730       -1.04230        0.02990
H          0.93490        1.93900       -0.29900
H         -0.78540        1.91020       -0.72490
H         -0.29240        1.91840        0.97760
H         -0.27320       -0.94350       -2.12970
H          1.38450       -2.66860       -0.33610
H          2.17610       -1.14950       -0.84960
H         -0.23790       -2.69590        1.35070
H         -0.74470       -1.19860        2.18700
H         -2.12250       -0.97460       -0.20710
