16
gdb 8774	3.45861	1.34604	1.19533	2.9712	62.61	-0.2621	-0.0432	0.2188	1031.902	0.126516	-420.893603	-420.884568	-420.883624	-420.927882	31.024
C         -0.14230        1.63950       -0.01750
C         -0.01800        0.11180       -0.03280
C         -1.37530       -0.56640        0.13960
O         -1.65970       -1.64940       -0.29750
C          0.69660       -0.43480       -1.29050
O          0.17790        0.13220       -2.46180
C          2.18740       -0.20050       -1.20390
O          2.78990        0.40490       -2.05740
H          0.84120        2.11700        0.01270
H         -0.65750        1.98570       -0.91590
H         -0.70240        1.97440        0.86100
H          0.55680       -0.20990        0.85240
H         -2.10380        0.01770        0.74700
H          0.53690       -1.52730       -1.29000
H          0.93730        0.52690       -2.91940
H          2.69950       -0.62040       -0.31310
