16
gdb 13848	4.59436	1.59493	1.20838	3.1634	69.43	-0.2024	0.012	0.2145	964.499	0.132584	-379.972048	-379.964451	-379.963507	-380.004355	27.945
N         -0.02350        1.38270        0.04240
C          0.03570       -0.01020        0.01710
O          1.08550       -0.62490       -0.05260
N         -1.18100       -0.64900        0.03870
C         -1.25890       -2.12130        0.01730
C         -2.78160       -2.41740        0.09630
C         -3.40850       -1.05950       -0.14250
C         -2.46380       -0.11820       -0.14630
H          0.89210        1.77820        0.20010
H         -0.73980        1.80310        0.61620
H         -0.81280       -2.49520       -0.91000
H         -0.68690       -2.53910        0.84740
H         -3.08460       -3.16130       -0.64740
H         -3.06550       -2.82250        1.07640
H         -4.46700       -0.88310       -0.26330
H         -2.57870        0.94540       -0.29730
