19
gdb 6400	4.58102	1.01877	0.88437	3.6513	68.5	-0.2351	0.0364	0.2715	1313.677	0.16422	-402.243161	-402.233627	-402.232683	-402.277857	34.466
C         -0.16840        1.56390       -0.51180
C         -0.17040        0.19180        0.16630
C         -1.44290       -0.61810       -0.10370
O         -1.65030       -0.79390       -1.51610
C         -1.43970       -1.96310        0.63970
C         -2.75800       -2.74780        0.64740
N         -3.43670       -2.75070       -0.53270
O         -3.13580       -3.34680        1.63670
H          0.77110        2.09250       -0.32650
H         -0.30120        1.46600       -1.59230
H         -0.98440        2.18920       -0.13350
H          0.69700       -0.39680       -0.16800
H         -0.05660        0.30670        1.25070
H         -2.31270       -0.03140        0.21670
H         -0.87770       -1.25290       -1.86770
H         -0.65920       -2.60650        0.20830
H         -1.17620       -1.81220        1.68920
H         -3.13780       -2.15500       -1.29120
H         -4.33430       -3.20600       -0.55700
