12
gdb 23685	3.71784	1.9386	1.2742	3.1807	60.33	-0.2222	-0.0391	0.183	845.5908	0.085295	-422.69612	-422.690067	-422.689123	-422.726373	23.291
F          0.07650        0.03110        0.00250
C         -0.06340        1.34720        0.01120
C         -1.26840        1.96940        0.03070
C         -1.24080        3.39310        0.03780
C         -0.07800        4.10410        0.02580
C          1.21430        3.45060        0.00490
O          2.31790        3.96170       -0.00720
N          1.10150        2.03030       -0.00090
H         -2.18220        1.39490        0.04010
H         -2.18830        3.92230        0.05340
H         -0.06440        5.18620        0.03130
H          1.97490        1.52000       -0.01530
