17
gdb 15384	3.85144	1.09251	0.92412	3.7298	69.7	-0.2963	-0.0022	0.2941	1263.1198	0.140854	-363.858743	-363.850098	-363.849154	-363.892779	30.241
C         -0.14810        1.52000        0.01000
C         -0.12890       -0.00140       -0.15430
C          1.04540       -0.48770       -1.01670
C          1.05360       -1.98660       -1.16580
O          0.09140       -2.56510       -2.05190
C          1.47000       -2.68860       -2.40150
C          1.91560       -1.95560       -3.56780
N          2.29650       -1.38740       -4.49950
H          0.76680        1.87910        0.49410
H         -0.22730        2.02100       -0.96080
H         -0.99680        1.84080        0.62120
H         -0.07780       -0.47940        0.83280
H         -1.06490       -0.34040       -0.61320
H          1.00030       -0.02490       -2.00830
H          1.99680       -0.17960       -0.56300
H          1.18390       -2.55410       -0.24190
H          1.87890       -3.69500       -2.32970
