14
gdb 4390	3.72437	1.95997	1.29453	4.5409	68.8	-0.2259	-0.0564	0.1696	891.1494	0.109109	-378.788208	-378.781404	-378.78046	-378.819209	25.406
C         -0.01410        1.52170        0.04720
C         -0.00360        0.02720       -0.04920
C         -0.04130       -0.67840       -1.21610
N         -0.02860       -2.04660       -1.24690
C          0.02100       -2.70150       -0.12760
C          0.06590       -2.08420        1.20040
O          0.11260       -2.65900        2.27240
N          0.04840       -0.68460        1.11760
H          0.88920        1.89190        0.54580
H         -0.06240        1.96730       -0.94760
H         -0.87710        1.87450        0.62380
H         -0.08320       -0.16570       -2.16910
H          0.03110       -3.78860       -0.15030
H          0.07770       -0.20500        2.00870
