22
gdb 6157	3.99296	1.21136	1.18738	1.4723	78.6	-0.2381	0.0834	0.3215	1183.8171	0.198268	-350.212377	-350.202937	-350.201993	-350.246389	35.222
C          0.10740        1.39270        0.43220
C          0.03040       -0.09570        0.08120
C         -1.38520       -0.54030       -0.24720
C         -1.67760       -2.05110       -0.33680
C         -2.70050       -1.79190        0.80060
C         -4.16390       -1.89140        0.38490
C         -2.43210       -2.50180        2.12010
O         -2.28900       -0.39280        0.87570
H          1.12540        1.68560        0.70570
H         -0.20470        2.01560       -0.41360
H         -0.55270        1.61710        1.27490
H          0.67200       -0.32060       -0.78170
H          0.40260       -0.69760        0.91970
H         -1.75860        0.03020       -1.11130
H         -2.09630       -2.40750       -1.27980
H         -0.83710       -2.68930       -0.05280
H         -4.46170       -2.93740        0.25180
H         -4.80710       -1.44610        1.15080
H         -4.33810       -1.36090       -0.55570
H         -1.38200       -2.40190        2.40810
H         -3.04660       -2.06960        2.91690
H         -2.67170       -3.56830        2.04370
