15
gdb 14410	3.37519	2.26867	1.81746	4.4146	64.85	-0.2451	0.0044	0.2495	772.785	0.119183	-362.628566	-362.621937	-362.620993	-362.659198	25.507
C         -0.15200        1.51250       -0.02850
C          0.10920        0.04800        0.01900
C          0.64390       -0.97920       -0.88400
C          1.38680       -1.70300        0.24200
C          0.39600       -0.97880        1.19880
C         -0.93450       -1.56050        0.74830
O         -1.85730       -2.11080        1.26110
N         -0.84440       -0.98910       -0.59180
H          0.74220        2.07900        0.25160
H         -0.44790        1.80790       -1.03880
H         -0.95920        1.78880        0.65760
H          0.89650       -0.91530       -1.93490
H          1.38860       -2.79750        0.25810
H          2.40670       -1.32390        0.34130
H          0.62620       -0.77850        2.24150
