18
gdb 13304	5.4547	1.19142	1.02619	0.8005	79.23	-0.2379	0.0252	0.2631	1145.0066	0.153908	-310.650382	-310.642456	-310.641512	-310.682983	29.864
C         -0.06550       -1.24820       -0.03860
C         -0.05760       -0.04580       -0.03640
C         -0.01180        1.41140       -0.03530
C          1.42630        1.97870        0.02150
C          1.46570        3.53000       -0.02890
C          2.61520        3.95470        0.92030
C          2.80500        2.73230        1.78760
C          2.17000        1.66780        1.30170
H         -0.08650       -2.30960       -0.04120
H         -0.51200        1.79160       -0.93560
H         -0.58130        1.79740        0.82040
H          1.97380        1.55060       -0.83060
H          1.58580        3.91430       -1.04510
H          0.51640        3.92250        0.35380
H          3.53740        4.18310        0.36740
H          2.37400        4.85640        1.49460
H          3.42670        2.73780        2.67650
H          2.18650        0.67000        1.72520
