15
gdb 21169	3.33397	1.85822	1.27197	2.2552	63.11	-0.2106	0.0401	0.2507	932.0075	0.121036	-395.982407	-395.974846	-395.973902	-396.014484	27.693
C          0.20420        1.13590        0.49550
N         -0.01260       -0.01050       -0.39390
C         -1.26540       -0.66480       -0.25230
C         -1.35250       -1.97880        0.16880
O         -0.37620       -2.84210        0.48960
N         -2.65730       -2.30570        0.21200
N         -3.46270       -1.26850       -0.16430
C         -2.61910       -0.28240       -0.44090
H          1.20470        1.54380        0.32060
H         -0.52870        1.94680        0.36530
H          0.14830        0.79970        1.53480
H          0.15090        0.26780       -1.35560
H          0.44610       -2.34660        0.34720
H         -3.06400       -3.18800        0.46970
H         -3.00880        0.67100       -0.76990
