12
gdb 43	15.61472	6.31363	5.54514	0.1136	41.96	-0.2727	0.1012	0.3738	298.6061	0.109284	-157.116735	-157.11209	-157.111146	-157.143262	16.49
C         -0.03600        1.52090        0.01570
C          0.01940        0.01000        0.04810
C          1.30890       -0.71250       -0.24920
C          0.75350       -0.70270        1.15560
H          0.90110        1.95390        0.38280
H         -0.19640        1.89440       -1.00210
H         -0.84690        1.90590        0.64450
H         -0.88420       -0.48000       -0.30570
H          1.26900       -1.63900       -0.81150
H          2.19010       -0.11130       -0.44930
H          1.26250       -0.09490        1.89690
H          0.33540       -1.62250        1.54980
