14
gdb 11646	3.33539	1.87646	1.49231	4.0282	63.67	-0.2527	-0.0083	0.2444	848.6126	0.107645	-378.650358	-378.64342	-378.642476	-378.681372	26.531
N          0.31020        1.49010       -0.04140
C          0.05290        0.09160        0.01200
C         -0.14690       -0.64830        1.36130
C         -1.58590       -0.09080        1.49630
C         -1.38620       -0.61210        0.05070
O         -0.70430       -1.79480        0.60100
C         -2.35300       -0.77650       -1.00200
N         -3.11480       -0.84360       -1.86960
H          0.32670        1.83210       -0.99500
H         -0.34730        2.04970        0.48820
H          0.71820       -0.45240       -0.66020
H          0.58010       -0.87180        2.13950
H         -2.26030       -0.69550        2.10220
H         -1.73390        0.98040        1.64970
