16
gdb 8117	3.28098	1.94103	1.52963	1.968	60.02	-0.2301	0.0565	0.2866	847.27	0.129628	-420.831717	-420.824028	-420.823084	-420.863113	29.899
O         -0.08220        1.41750       -0.03770
C         -0.13060        0.02340        0.00740
C         -0.47120       -0.77930        1.23790
C         -1.56350       -0.07360        2.02790
O         -1.12910        1.17850        2.55820
C         -2.49610       -0.05600        0.76900
C         -1.39360       -0.78220       -0.00810
O         -1.62280       -1.83950       -0.86870
H         -0.28320        1.73430        0.85440
H          0.66170       -0.43190       -0.58470
H          0.19030       -1.54060        1.63300
H         -1.97400       -0.69940        2.82830
H         -1.89210        1.63400        2.92960
H         -3.38780       -0.67070        0.90600
H         -2.77530        0.93300        0.39250
H         -1.62510       -1.49980       -1.77040
