15
gdb 4195	4.61501	1.59658	1.30936	1.8769	64.65	-0.246	-0.002	0.244	909.2753	0.119407	-399.751695	-399.744835	-399.743891	-399.782764	26.262
O         -0.08710        1.31270       -0.06630
N          0.02010       -0.08580       -0.05260
C         -1.12160       -0.63910        0.05370
C         -2.49560       -0.01280        0.18890
C         -3.37070       -1.11370        0.84740
C         -2.62090       -2.41080        0.59550
O         -2.26710       -2.60430       -0.77410
C         -1.25340       -2.11460        0.13290
H          0.83460        1.58760       -0.11770
H         -2.44920        0.90870        0.77230
H         -2.87170        0.25650       -0.80300
H         -3.45210       -0.95330        1.92830
H         -4.38610       -1.14310        0.44220
H         -2.86240       -3.31370        1.15110
H         -0.39080       -2.75350        0.28510
