16
gdb 5110	3.45181	2.06769	1.31439	2.5525	67.1	-0.1925	0.0531	0.2456	908.799	0.131175	-379.971533	-379.963403	-379.962459	-380.004027	29.167
C          0.03070        1.46210       -0.01910
N          0.03530        0.01430       -0.02170
C          0.01130       -0.83670       -1.13460
C         -0.02400       -0.32880       -2.53380
C          0.02800       -2.09740       -0.61180
N          0.06130       -2.07130        0.77480
C          0.06420       -0.80070        1.06630
O          0.09210       -0.26110        2.30140
H          0.90630        1.85930       -0.54290
H         -0.87130        1.85350       -0.50080
H          0.05400        1.80660        1.01470
H          0.85150        0.28520       -2.78200
H         -0.03830       -1.17480       -3.22510
H         -0.91410        0.28000       -2.73930
H          0.01800       -3.03200       -1.15200
H          0.10930       -1.00740        2.91330
