18
gdb 2332	6.07693	1.25263	1.14017	1.9442	64.73	-0.2433	0.0771	0.3205	1062.7557	0.159507	-326.947461	-326.939074	-326.938129	-326.980538	29.614
C          0.09580        1.54620       -0.22470
C          0.02440        0.06320        0.05110
N          1.29480       -0.68320        0.07970
C          0.48260       -0.58850        1.30970
C          1.09330        0.13910        2.48460
C          2.11040       -0.72610        3.22070
O          2.60370        0.02220        4.32220
H          0.97430        1.99710        0.24100
H          0.16070        1.73000       -1.30260
H         -0.79830        2.05640        0.15020
H         -0.81600       -0.43180       -0.43600
H          1.18610       -1.59550       -0.35410
H         -0.07280       -1.48440        1.59140
H          1.59520        1.05200        2.15390
H          0.30580        0.43650        3.18810
H          1.63140       -1.66090        3.55860
H          2.91690       -1.00210        2.52480
H          3.29400       -0.49260        4.74960
