15
gdb 19626	4.83129	2.02079	1.85313	0.8628	63.84	-0.2279	0.0675	0.2954	742.947	0.119925	-362.548201	-362.542352	-362.541408	-362.5779	23.921
C         -0.10290        1.48190       -0.04370
N          1.17890        0.72540        0.04810
C         -0.09110        0.01400        0.02300
C         -0.47340       -1.00980        1.06740
C         -1.64680       -1.76490        0.41560
O         -1.94990       -1.13500       -0.83370
C         -0.50960       -1.02750       -1.02460
C         -0.25570       -2.14720        0.06020
H         -0.34030        2.07200        0.83710
H         -0.36520        1.95170       -0.98850
H          1.62430        0.69330       -0.86700
H         -0.27820       -1.00290        2.13110
H         -2.43560       -2.27300        0.95400
H         -0.19920       -0.98990       -2.06810
H          0.31800       -3.06190        0.09390
