13
gdb 2908	5.26608	2.324	1.98515	3.2989	56.06	-0.2331	-0.0293	0.2039	661.7507	0.101195	-344.454928	-344.448616	-344.447672	-344.485643	22.144
O          0.16620       -0.06860       -0.20590
C          0.05890        1.11270       -0.02740
C          1.23370        2.08550        0.11230
O          2.46970        1.41680        0.23180
C          3.25580        1.62060       -0.94230
C          2.50420        2.65100       -1.73720
C          1.35600        2.93660       -1.13450
H         -0.93740        1.61330        0.03800
H          1.04670        2.69190        1.01590
H          4.26000        1.95630       -0.64690
H          3.37210        0.67570       -1.49490
H          2.87270        3.07230       -2.66360
H          0.59190        3.62860       -1.46210
