14
gdb 23647	3.63412	1.90774	1.26074	2.7632	66.68	-0.2501	-0.028	0.2222	901.8677	0.107962	-386.763952	-386.757222	-386.756277	-386.795206	25.034
C          0.00040        1.49770        0.03800
C          0.01970       -0.00580       -0.02160
C         -0.10920       -0.70240       -1.22190
C         -0.08240       -2.09630       -1.20200
C          0.07130       -2.75720        0.00710
C          0.19030       -1.95380        1.13860
F          0.33960       -2.54990        2.32050
N          0.16900       -0.64390        1.15340
H          0.93100        1.87240        0.47620
H         -0.12400        1.93980       -0.95300
H         -0.81530        1.84180        0.68180
H         -0.22820       -0.16270       -2.15400
H         -0.18090       -2.66080       -2.12330
H          0.10010       -3.83580        0.09130
