16
gdb 13008	2.81721	2.50396	1.72712	2.0779	64.26	-0.2495	-0.0116	0.2379	800.3513	0.1303	-383.727257	-383.720056	-383.719111	-383.758274	27.981
C         -0.09280        1.48760        0.02030
C          0.14960        0.00770       -0.01960
O         -0.76110       -0.82330        0.72510
C          0.65640       -0.83500        1.06900
C          1.39140       -1.98240        0.44960
C          1.31900       -1.90410       -0.88030
C          0.52790       -0.68820       -1.34330
O         -0.61760       -1.03060       -2.10610
H          0.81080        2.03760       -0.26280
H         -0.88550        1.75570       -0.68690
H         -0.39990        1.80420        1.02010
H          0.88430       -0.46050        2.06220
H          1.86780       -2.76690        1.02480
H          1.69430       -2.63490       -1.58740
H          1.12520       -0.02860       -1.98360
H         -1.21000       -1.47590       -1.48470
