18
gdb 17331	3.4759	2.17976	1.82676	2.241	70.78	-0.2183	0.0739	0.2922	808.92	0.155899	-343.939463	-343.932698	-343.931754	-343.969864	27.536
C          0.09330        1.50510        0.02910
C         -0.02580        0.00080        0.00060
C         -0.69980       -0.77120        1.07730
N          0.77060       -0.78480        0.97730
C          1.36810       -1.94290        0.27270
C          0.95850       -1.87110       -1.19420
N         -0.49100       -2.04110       -1.41880
C          0.08470       -0.68000       -1.35110
H          0.98190        1.84360       -0.51640
H         -0.78370        1.97750       -0.42810
H          0.17700        1.85930        1.05920
H         -1.07870       -0.25110        1.95450
H         -1.25160       -1.65860        0.78460
H          2.45790       -1.85920        0.35280
H          1.06660       -2.88280        0.74650
H          1.65340       -2.19230       -1.96500
H         -0.65630       -2.28770       -2.39210
H          0.09410       -0.06400       -2.24410
