15
gdb 20675	3.19963	1.88148	1.27678	2.0634	62.75	-0.255	-0.01	0.245	927.3174	0.118885	-399.79395	-399.786194	-399.78525	-399.826409	27.626
C          0.10560        1.50030        0.10740
C          0.05280        0.00640        0.04870
C          0.04240       -0.82340       -1.02530
O         -0.00780       -2.11190       -0.64290
N         -0.02600       -2.16130        0.74400
C          0.00360       -0.91290        1.14670
C          0.03010       -0.59490        2.61300
O          1.19840        0.13180        2.97820
H          0.86690        1.82790        0.82050
H          0.33360        1.92870       -0.87190
H         -0.85000        1.92270        0.43970
H          0.06720       -0.65190       -2.09080
H         -0.81070        0.05550        2.87510
H         -0.07450       -1.52720        3.18250
H          1.95720       -0.43140        2.79180
