19
gdb 15162	4.61711	0.9033	0.85572	1.6842	80.32	-0.2325	0.0466	0.2791	1429.9155	0.164564	-327.868963	-327.859808	-327.858864	-327.904149	32.197
C         -0.55860        1.26720       -0.95550
C         -0.09710       -0.12530       -0.48860
C          0.98090       -0.67820       -1.30340
C          1.88590       -1.10290       -1.97810
C          2.96120       -1.64390       -2.81670
N          2.57820       -2.56570       -3.89570
C          1.47780       -3.49320       -3.66200
C          1.31670       -2.33920       -4.59080
H          0.26820        1.98180       -0.92090
H         -0.92790        1.22950       -1.98400
H         -1.36290        1.63830       -0.31340
H          0.23210       -0.07160        0.55720
H         -0.94960       -0.81640       -0.49770
H          3.50860       -0.81550       -3.28350
H          3.68400       -2.17440       -2.18440
H          1.62920       -4.49860       -4.04470
H          0.94650       -3.43080       -2.71490
H          0.68140       -1.52620       -4.24630
H          1.34740       -2.48230       -5.66730
