14
gdb 10677	2.54306	2.31701	1.33114	1.6486	59.32	-0.2591	-0.0551	0.204	887.6272	0.103397	-419.674608	-419.666407	-419.665463	-419.708499	28.364
C          0.10810        1.37160       -0.37920
C         -0.10220        0.11390        0.42370
O          0.65010       -0.23900        1.29980
C         -1.32230       -0.76310        0.12170
C         -1.17090       -2.22050        0.41120
O         -1.89060       -1.39270        1.28550
C         -2.36820       -0.42790       -0.89790
O         -2.24440        0.35180       -1.80720
H          1.02520        1.85500       -0.04130
H          0.15610        1.14430       -1.44740
H         -0.74440        2.04830       -0.25790
H         -1.75630       -2.94080       -0.15990
H         -0.19150       -2.53840        0.76170
H         -3.30670       -1.00000       -0.72840
