11
gdb 21375	5.55927	2.28169	1.61773	6.3662	57.62	-0.2365	-0.037	0.1995	695.9636	0.075647	-393.570228	-393.564977	-393.564033	-393.599408	20.372
N         -0.03900        1.38890        0.01020
C          1.29140        1.77600       -0.00040
N          2.16190        0.80320       -0.01440
C          1.36680       -0.33200       -0.01300
N          1.57380       -1.63140       -0.02250
O          0.28190       -2.15980       -0.01270
C         -0.66210       -1.18230        0.00200
C         -0.01770        0.00850        0.00240
H         -0.83400        2.00270        0.02180
H          1.54950        2.82700        0.00300
H         -1.68470       -1.51880        0.01010
