17
gdb 3526	6.93292	2.25697	2.18758	0.1012	68.37	-0.2835	0.0974	0.3808	681.8445	0.149575	-272.509064	-272.503219	-272.502275	-272.538263	23.657
C         -0.15510        1.60520       -0.02280
C         -0.03150        0.08910        0.00690
C          1.18080       -0.59560       -0.66600
C          2.13970       -0.29470        0.54170
C          2.58390       -1.76670        0.65040
C          1.08990       -1.84070        0.28230
C          0.72960       -0.59650        1.16540
H          0.79630        2.09360        0.21210
H         -0.47400        1.95510       -1.01110
H         -0.89700        1.95420        0.70430
H         -0.99390       -0.38370       -0.23040
H          1.46680       -0.61440       -1.72020
H          2.73450        0.60760        0.68870
H          3.29610       -2.12390       -0.10090
H          2.86560       -2.12480        1.64620
H          0.45580       -2.71540        0.12560
H          0.49310       -0.61650        2.23180
