15
gdb 18893	4.48088	2.38103	2.00979	1.1744	62.07	-0.2242	0.0628	0.287	690.2535	0.120513	-362.59198	-362.586268	-362.585324	-362.621289	24.048
O         -0.12160        1.32110       -0.10490
C          0.03430       -0.05550       -0.06540
C          1.11090       -0.78860       -0.84750
C          0.73820       -2.19320       -0.44540
C         -0.72820       -2.31750       -0.22400
C         -1.23280       -0.88980        0.02060
C         -0.27850       -0.83960        1.19020
N          0.19440       -2.25420        0.95820
H          0.58990        1.72030        0.40840
H          1.02700       -0.62730       -1.92710
H          2.12100       -0.51140       -0.52430
H          1.33620       -3.05140       -0.72860
H         -1.32900       -3.19510       -0.43320
H         -2.22680       -0.48460       -0.09930
H         -0.36860       -0.43450        2.18960
