15
gdb 15756	3.97706	1.28029	1.08326	2.7704	63.85	-0.254	-0.0327	0.2213	1075.0923	0.116907	-399.802417	-399.794204	-399.79326	-399.836742	27.865
O          1.05440       -0.04690       -0.13090
C          0.55340        1.00640       -0.42400
C          0.99010        2.34210        0.15950
C          1.09520        3.40010       -0.93340
O          0.19440        3.60740       -1.71630
N          2.26780        4.14430       -0.90510
C          3.59390        3.62670       -1.20310
C          2.91780        4.62120       -2.10250
H         -0.27880        1.08510       -1.15320
H          0.18990        2.67210        0.83600
H          1.90730        2.21870        0.73660
H          4.38990        3.94540       -0.53630
H          3.67080        2.60120       -1.55640
H          2.51910        4.26830       -3.04940
H          3.23570        5.65920       -2.08750
