13
gdb 5683	5.43074	2.33211	1.6315	3.4998	64.6	-0.1954	0.0257	0.2211	721.188	0.099662	-357.687729	-357.68206	-357.681116	-357.717151	22.588
N         -0.01600        1.33870        0.00980
C          1.29070        1.80990       -0.00020
C          2.13990        0.74690       -0.01450
N          1.34640       -0.39590       -0.01320
C          1.35430       -1.78400       -0.02100
C          0.02270       -2.13340       -0.01010
N         -0.82240       -1.03840        0.00440
C          0.02040       -0.03190        0.00180
H         -0.85270        1.89200        0.02140
H          1.50920        2.86370        0.00360
H          3.21480        0.71730       -0.02520
H          2.26230       -2.36050       -0.03310
H         -0.37980       -3.13560       -0.01180
