15
gdb 13953	5.11389	1.42225	1.27716	2.7071	64.69	-0.251	0.0266	0.2776	942.4884	0.118914	-362.631887	-362.624728	-362.623783	-362.663752	26.387
N         -0.75780        0.02630        1.36650
C         -0.20610        0.39090        0.41930
C          0.50450        0.87100       -0.76210
C          1.64900        1.78970       -0.41660
C          2.56710        1.72390        0.76020
C          1.81830        3.01200        0.45470
C          2.42210        3.64860       -0.79100
O          2.30060        2.39950       -1.53440
H          0.88720        0.00900       -1.32380
H         -0.20040        1.39130       -1.42070
H          2.19040        1.18620        1.62440
H          3.63890        1.65300        0.59500
H          1.14330        3.48160        1.15660
H          1.79440        4.42280       -1.24460
H          3.46020        3.99480       -0.73410
