16
gdb 12488	3.19068	2.04391	1.39812	3.9277	61.34	-0.2614	0.0052	0.2666	876.9499	0.131746	-420.894819	-420.887475	-420.886531	-420.927254	26.442
O         -0.12900       -0.08930        0.42720
C         -0.07810        1.04390        0.03420
C         -1.29000        1.96650        0.03180
C         -1.79770        2.39290       -1.35280
O         -0.78960        2.86370       -2.23170
C          0.25840        3.57150       -1.60740
C          1.39850        2.63830       -1.21190
O          1.13130        1.55800       -0.30780
H         -2.08930        1.42460        0.54130
H         -1.05280        2.84530        0.63980
H         -2.25850        1.54020       -1.86060
H         -2.57490        3.16070       -1.21590
H          0.66770        4.26560       -2.35110
H         -0.09510        4.17950       -0.76460
H          1.78540        2.17790       -2.12830
H          2.20650        3.22150       -0.75630
