13
gdb 16604	3.33851	2.38466	1.53287	5.0373	58.37	-0.2438	-0.0887	0.1551	779.2669	0.095765	-398.608293	-398.601827	-398.600883	-398.639348	24.009
O         -0.00480       -0.00210       -0.00550
C         -0.04460        1.19430        0.01330
C         -1.27090        2.10070        0.09220
C         -0.69590        3.50690        0.05980
C          0.15390        3.97970        1.17590
N          0.78590        3.47270       -0.06960
C          1.21270        2.12170        0.00450
O          2.34660        1.74440        0.06990
H         -1.91900        1.90510       -0.76770
H         -1.85320        1.87800        0.99180
H         -1.17760        4.24390       -0.57460
H          0.29850        5.04150        1.34590
H          0.23380        3.36040        2.06700
