13
gdb 3662	3.75341	3.31973	1.78425	3.9006	56.34	-0.2097	0.0145	0.2242	675.4115	0.102298	-340.636727	-340.629883	-340.628939	-340.668109	24.208
C         -0.03190        1.54330        0.05130
C         -0.00920        0.04690        0.01270
C         -0.02450       -0.78010       -1.08120
N         -0.11890       -0.52990       -2.43170
O         -0.00390       -2.06650       -0.71360
N          0.02230       -2.13810        0.69750
C          0.02170       -0.88570        1.08200
H          0.94570        1.98800       -0.17640
H         -0.75300        1.95430       -0.66460
H         -0.32240        1.90020        1.04320
H          0.30800        0.33540       -2.72830
H          0.15390       -1.31130       -3.01140
H          0.03750       -0.67210        2.14320
