13
gdb 2639	12.14742	0.93806	0.91634	2.2795	53.02	-0.2693	-0.0434	0.2258	1159.1455	0.099152	-381.615289	-381.607503	-381.606559	-381.649085	24.716
O          0.12220       -0.03860       -0.24870
C          0.13290        1.13790       -0.00080
C          1.33020        2.04670       -0.18860
C          1.01870        3.19840       -1.14900
O          2.05590        4.18040       -1.09730
C          2.91120        4.25650       -2.13880
O          3.82490        5.02180       -2.16540
H         -0.77460        1.64920        0.39750
H          1.58460        2.48270        0.78660
H          2.17890        1.45470       -0.54020
H          0.89650        2.82880       -2.17470
H          0.09400        3.70860       -0.86170
H          2.66220        3.54410       -2.95020
