19
gdb 14380	3.63587	2.14463	1.84838	1.7976	73.69	-0.2342	0.0818	0.3159	816.4399	0.165871	-327.861876	-327.85469	-327.853745	-327.892587	29.075
C         -0.08780        1.47470        0.02960
C          0.00780       -0.05470        0.01290
C         -1.37940       -0.67350        0.18280
C          0.89580       -0.53060       -1.14660
C          2.12760       -0.41940       -0.33830
C          1.18870       -0.54230        0.92530
C          1.27180       -2.05120        0.66150
N          1.66530       -1.77180       -0.76140
H          0.89970        1.94090       -0.04160
H         -0.69270        1.84100       -0.80760
H         -0.56200        1.82280        0.95430
H         -2.06540       -0.27920       -0.57570
H         -1.37480       -1.76070        0.08070
H         -1.80130       -0.42540        1.16400
H          0.75740       -0.37590       -2.21000
H          3.11620       -0.02280       -0.52700
H          1.33110       -0.10330        1.91250
H          2.12560       -2.52240        1.15580
H          0.38240       -2.67370        0.80250
