13
gdb 20346	5.19136	2.13236	1.52573	3.1974	65.89	-0.2292	-0.0242	0.2049	762.2258	0.098213	-361.461549	-361.456082	-361.455138	-361.490936	21.825
C         -0.06150        1.50650        0.01080
C          1.40930        1.90770       -0.00110
C          2.23660        0.84370       -0.01490
C          1.43410       -0.37160       -0.01390
C          1.38110       -1.72600       -0.02080
O          0.08670       -2.12650       -0.01060
N         -0.76000       -1.00370        0.00370
C          0.05840        0.00790        0.00140
H         -0.58660        1.88180        0.89730
H         -0.60350        1.89150       -0.86130
H          1.72360        2.94370        0.00150
H          3.31750        0.88430       -0.02510
H          2.10780       -2.52240       -0.03220
