16
gdb 15095	8.28942	0.74985	0.71004	1.2528	86.75	-0.24	-0.0092	0.2308	1549.0017	0.128913	-309.402657	-309.394251	-309.393307	-309.436071	30.668
C          0.06300       -3.69840       -0.27890
C          0.04460       -2.49840       -0.14390
C          0.02320       -1.14620        0.00810
C          0.00350        0.05650        0.14220
C         -0.00000        1.50400        0.30950
C          1.38620        2.12510        0.19230
C          1.94430        2.47810       -1.15970
C          1.52270        3.57110       -0.20660
H          0.07960       -4.75310       -0.39740
H         -0.66370        1.95410       -0.44150
H         -0.43770        1.75310        1.28610
H          2.09550        1.75270        0.92490
H          3.00290        2.32490       -1.33580
H          1.32020        2.29440       -2.02810
H          0.61650        4.12240       -0.43670
H          2.29170        4.16610        0.27320
