13
gdb 21337	6.07103	1.29866	1.13482	4.8974	63.23	-0.2602	0.005	0.2652	983.5901	0.098096	-357.680579	-357.67377	-357.672826	-357.712766	24.32
N         -0.36810       -0.79400       -0.96010
C         -0.14030        0.13510       -0.31240
C          0.14190        1.32490        0.49230
C          1.47940        1.94450        0.18320
N          2.26490        2.32810        1.18640
N          3.34100        2.86070        0.57990
C          3.26510        2.82090       -0.77170
C          2.05860        2.22860       -1.07420
H         -0.66930        2.04490        0.32430
H          0.11460        1.05910        1.55330
H          4.09060        3.21880        1.14710
H          4.05630        3.20290       -1.39710
H          1.65830        2.01910       -2.05250
