20
gdb 14452	3.12815	2.34013	1.93213	0.2163	78.48	-0.2748	0.0914	0.3662	821.3929	0.179413	-311.84728	-311.840487	-311.839543	-311.877724	27.996
C          0.01140        1.51250       -0.04070
C          0.01900        0.00610       -0.03470
C          0.60750       -0.94670       -1.10700
C          0.02580       -1.87970       -0.02210
C          0.60000       -0.93610        1.08010
C         -0.34520       -0.93010        2.28200
C         -1.71370       -0.94010        1.53980
C         -1.22170       -0.94930        0.09200
H          1.03120        1.91260       -0.07020
H         -0.52440        1.90130       -0.91410
H         -0.47730        1.91400        0.85460
H          0.11160       -0.95430       -2.08320
H          1.69620       -0.94290       -1.22370
H          0.02580       -2.97150       -0.00750
H          1.67800       -0.93030        1.25940
H         -0.20580       -1.80650        2.92320
H         -0.21130       -0.04340        2.91060
H         -2.31730       -1.82180        1.77800
H         -2.32340       -0.05870        1.76500
H         -1.95990       -0.95670       -0.71370
