18
gdb 11281	5.26947	1.24131	1.07488	0.8997	74.12	-0.2514	0.0516	0.303	1112.7093	0.153535	-347.78253	-347.774333	-347.773389	-347.815898	30.504
C          0.53810        1.74710       -0.09760
C          0.19070        0.28870        0.14270
C          0.21780       -0.61700       -1.11810
C          1.01360       -1.87860       -0.66080
C          1.08380       -1.67200        0.87510
O          1.14950       -0.27350        1.04020
C          0.43670       -3.15080       -1.06110
C         -0.05090       -4.20460       -1.37370
H          1.52460        1.83190       -0.56430
H         -0.20100        2.21220       -0.75710
H          0.55410        2.29910        0.84620
H         -0.80670        0.22000        0.60800
H         -0.78980       -0.88130       -1.44390
H          0.72140       -0.12420       -1.95360
H          2.03420       -1.81100       -1.05260
H          0.18480       -2.09510        1.35110
H          1.96900       -2.11950        1.33230
H         -0.47480       -5.13660       -1.65460
