17
gdb 2298	7.60321	1.33907	1.24869	2.0907	61.01	-0.2439	0.0828	0.3267	979.4096	0.147771	-346.815715	-346.80792	-346.806976	-346.848672	26.379
C         -0.12520        1.37340       -0.11190
O         -0.08270       -0.03340       -0.08750
C          0.75880       -0.57770       -1.07970
C          0.70280       -2.08830       -0.97460
C         -0.60810       -2.74170       -1.46110
O          0.05580       -3.32720       -2.60310
C          1.34100       -2.85600       -2.15250
H          0.86900        1.81510        0.06180
H         -0.50520        1.75460       -1.07310
H         -0.79830        1.69500        0.68640
H          0.43100       -0.25670       -2.08470
H          1.79610       -0.22130       -0.94890
H          1.02960       -2.40070        0.01920
H         -1.02650       -3.50680       -0.79540
H         -1.40590       -2.04860       -1.75310
H          1.84550       -2.24260       -2.91110
H          2.00610       -3.68130       -1.86760
