17
gdb 2203	4.21475	2.21729	1.71126	2.6126	59.99	-0.2464	0.0678	0.3141	765.6238	0.14727	-346.837271	-346.829376	-346.828432	-346.868855	29.144
C         -0.12260        1.51100       -0.00040
C         -0.00580       -0.01160        0.00910
C          1.14050       -0.57510       -0.87770
O          1.53190        0.27870       -1.92770
C          2.04270       -0.67970        0.38330
C          0.74830       -0.59190        1.23890
O          0.73540        0.24460        2.37250
H          0.83740        1.99890        0.18190
H         -0.49160        1.85360       -0.97060
H         -0.81650        1.83970        0.77760
H         -0.98820       -0.45530       -0.17640
H          0.88410       -1.57310       -1.26110
H          2.28590       -0.11910       -2.37410
H          2.68700       -1.55610        0.49570
H          2.63460        0.23230        0.50030
H          0.37450       -1.59500        1.48970
H          1.27940       -0.16290        3.05370
