14
gdb 19655	4.75832	2.08292	1.92251	1.5643	59.85	-0.2379	-0.0196	0.2183	706.7825	0.109129	-382.505011	-382.499573	-382.498629	-382.534435	22.183
O         -0.06890       -0.03210       -0.07120
C         -0.03860        1.15870        0.03750
C         -1.07260        2.29340        0.01530
C         -0.79730        2.91740        1.40790
C          0.64410        3.34500        1.04690
O          0.39330        4.29320       -0.03100
C          0.05160        3.12800       -0.78120
C          1.05180        2.22210        0.01060
H         -2.09370        2.15730       -0.32820
H         -1.40970        3.79350        1.62790
H         -0.87290        2.19350        2.22330
H          1.32040        3.71490        1.81520
H         -0.00630        3.24180       -1.86050
H          2.09670        2.06980       -0.24290
