14
gdb 1705	4.55384	2.1654	1.9082	1.852	57.83	-0.239	0.0243	0.2632	704.8508	0.115081	-320.732586	-320.725691	-320.724747	-320.763267	25.123
N         -0.03570        1.50890       -0.00270
C          0.00330        0.05240       -0.01610
C          0.18100       -0.54280        1.41570
N         -1.27910       -0.76150        1.49390
C         -1.42580       -0.57300        0.03490
C          0.89660       -0.49720       -1.04360
N          1.60960       -0.89250       -1.86460
H          0.89780        1.88060        0.15310
H         -0.33770        1.85740       -0.90880
H          0.79350       -1.45240        1.41540
H          0.57320        0.16340        2.15450
H         -1.55360       -1.67520        1.83340
H         -2.23020        0.11070       -0.25470
H         -1.49780       -1.49550       -0.55370
