20
gdb 12635	3.35458	1.81433	1.34797	1.3887	76.33	-0.2354	0.0272	0.2626	983.6139	0.176843	-349.01897	-349.01048	-349.009535	-349.051391	32.624
C         -0.13790        1.61200       -0.04630
C          0.06100        0.09310       -0.02940
C          0.84870       -0.45910       -1.19830
C          1.67400       -1.43310       -0.82480
C          1.59100       -1.71270        0.66150
C          2.92700       -2.02860        1.34090
C          0.85950       -0.45090        1.19800
O          1.85120        0.46530        1.64450
H          0.82350        2.13270       -0.06480
H         -0.70200        1.91680       -0.93340
H         -0.70310        1.95440        0.82920
H         -0.93520       -0.37730       -0.01690
H          0.70940       -0.10190       -2.21350
H          2.31730       -2.00490       -1.48550
H          0.92160       -2.57340        0.81700
H          3.63240       -1.20440        1.22100
H          2.79370       -2.20330        2.41310
H          3.36780       -2.93160        0.90530
H          0.18640       -0.70330        2.03020
H          1.40340        1.22690        2.02380
