14
gdb 17085	5.52217	1.53129	1.4562	5.0658	69.55	-0.2507	-0.0541	0.1966	860.9644	0.110101	-341.545202	-341.539199	-341.538255	-341.575376	23.508
N          0.06140       -1.09990       -0.03780
C          0.00120        0.05750       -0.01330
C         -0.03130        1.46580        0.00700
C         -1.05950        2.32800        0.01880
C         -0.34560        3.67950        0.04560
C          0.75090        3.45820       -1.05030
C          1.18440        2.41710        0.02950
N          0.70590        3.37460        1.11030
H         -2.12250        2.14120        0.01920
H         -0.93740        4.58780        0.14170
H          0.44970        3.10240       -2.03970
H          1.44470        4.30080       -1.13050
H          2.18100        1.98730        0.10800
H          1.35870        4.16400        1.11980
