17
gdb 13202	5.0123	1.34513	1.09536	2.6004	66.69	-0.2369	0.054	0.2908	1084.9144	0.142317	-401.022915	-401.014374	-401.013429	-401.05689	28.799
C         -0.09340        1.31520        0.00040
O         -0.02700       -0.11090        0.05310
C          0.61320       -0.60410        1.14560
O          1.11360        0.07280        2.01790
N          0.59730       -1.96000        1.12720
C          0.39370       -2.91080        0.02850
C          1.16330       -3.97080        0.86920
C          1.43790       -2.85650        1.92200
H          0.90820        1.75310       -0.01690
H         -0.62700        1.55300       -0.92060
H         -0.63240        1.71280        0.86460
H         -0.65720       -3.13100       -0.18290
H          0.88390       -2.61250       -0.90460
H          0.53930       -4.78650        1.23570
H          2.05020       -4.38710        0.39150
H          2.47910       -2.52350        1.99210
H          1.06120       -3.04210        2.93240
