18
gdb 8092	3.53348	2.11239	1.71484	1.2833	66.73	-0.2393	0.0748	0.3141	811.7608	0.155594	-384.926828	-384.920025	-384.919081	-384.957219	27.928
O         -0.16910        1.40100       -0.16760
C          0.01960        0.02510        0.03390
C          0.16580       -0.54200        1.47760
C         -0.54830       -1.79660        0.90780
C         -1.25000       -0.84960       -0.10790
O          0.40010       -2.66220        0.29660
C          0.98650       -2.11680       -0.88030
C          1.14490       -0.57920       -0.82580
H          0.68430        1.84070       -0.08310
H          1.16860       -0.68680        1.88780
H         -0.46600        0.00740        2.18040
H         -1.15660       -2.41230        1.57060
H         -2.10820       -0.35690        0.35430
H         -1.53120       -1.23190       -1.09140
H          1.95090       -2.61670       -1.00730
H          0.36800       -2.37890       -1.75030
H          1.08930       -0.17370       -1.84200
H          2.11700       -0.29310       -0.40370
