18
gdb 9486	3.01034	1.71918	1.51479	3.1608	72.1	-0.2483	0.0252	0.2735	939.0878	0.153795	-343.984264	-343.975825	-343.974881	-344.016743	31.336
C         -0.18370        1.51850       -0.04470
C          0.01170        0.00860       -0.04640
C          1.21920       -0.49090       -0.88350
N          2.00960       -0.60530        0.36550
C          0.78050       -0.59100        1.19870
C          0.89390        0.20950        2.49390
C          0.28490       -1.94870        1.49240
N         -0.07480       -3.02660        1.71040
H          0.76160        2.04560        0.11370
H         -0.58580        1.83890       -1.01150
H         -0.88970        1.83580        0.72930
H         -0.93210       -0.49710       -0.25540
H          1.01930       -1.44500       -1.38690
H          1.63990        0.21410       -1.60800
H          2.59120       -1.43170        0.45700
H          1.26700        1.21180        2.27860
H         -0.07460        0.28280        2.99780
H          1.59520       -0.27850        3.17740
