18
gdb 16029	3.31794	1.72029	1.40217	0.8925	80.07	-0.2268	0.0405	0.2673	959.4081	0.153228	-310.61306	-310.605149	-310.604205	-310.644804	30.797
C         -0.03100        1.54860        0.03410
C          0.09540        0.04080        0.06270
C          1.34210       -0.74120       -0.22660
C          2.59670       -0.05180        0.31960
C          1.97180       -0.04950        1.74920
C          0.71560       -0.75660        1.19810
C          0.01360       -1.79440        1.87160
C         -0.56970       -2.67020        2.45800
H          0.86010        2.05430        0.41350
H         -0.19610        1.89880       -0.99080
H         -0.88190        1.87740        0.64000
H         -0.78780       -0.46820       -0.31750
H          1.34420       -1.55060       -0.94700
H          3.48150       -0.68860        0.26260
H          2.84410        0.92000       -0.11890
H          2.52260       -0.68720        2.44210
H          1.80440        0.92060        2.22640
H         -1.08800       -3.44140        2.97090
