17
gdb 6318	4.14813	1.0521	1.01016	3.3129	67.32	-0.2497	-0.0311	0.2186	1217.3619	0.138936	-401.048854	-401.039115	-401.038171	-401.086177	32.445
C          0.15600        1.59620        0.30010
C         -0.02200        0.12530       -0.07020
N          0.64360       -0.24280       -1.30970
C         -0.04550       -0.69180       -2.40850
C          0.79940       -0.91130       -3.65210
O         -1.24670       -0.88390       -2.39100
C          0.42690       -0.82170        1.03910
O          0.69370       -0.48420        2.16240
H          1.21550        1.84690        0.41710
H         -0.27350        2.23810       -0.47250
H         -0.33400        1.80410        1.25350
H         -1.08220       -0.09920       -0.25510
H          1.62820       -0.04720       -1.39760
H          1.86670       -1.01380       -3.43880
H          0.44300       -1.80660       -4.16400
H          0.66010       -0.06340       -4.33050
H          0.49450       -1.88420        0.71250
