19
gdb 15908	2.50914	1.94219	1.22763	1.8601	68.02	-0.2264	0.0676	0.294	1012.8916	0.16494	-402.160095	-402.151297	-402.150353	-402.193777	32.237
C          0.09640        1.53270        0.16390
N          0.09730        0.08130        0.14160
C         -1.19680       -0.59650        0.37780
C         -0.46810       -1.65840        1.23500
O         -0.21120       -2.88790        0.59680
C          0.71220       -0.63440        1.29020
C          2.13840       -1.11340        1.02890
O          2.92580       -0.09390        0.43160
H          1.12470        1.90320        0.16330
H         -0.41450        1.92080       -0.72400
H         -0.41180        1.94230        1.05730
H         -1.89990        0.01080        0.97000
H         -1.71150       -0.95570       -0.52140
H         -0.92390       -1.90890        2.19320
H          0.06830       -2.70370       -0.30670
H          0.66880       -0.03430        2.21340
H          2.63040       -1.38340        1.96840
H          2.11810       -2.01500        0.40090
H          2.49910        0.10400       -0.41020
