12
gdb 4380	3.80777	2.03892	1.32789	2.6595	60.3	-0.2324	-0.0396	0.1928	830.1282	0.086207	-414.725756	-414.719684	-414.71874	-414.755847	23.565
O          0.12970        1.30640       -0.01720
C          0.08470       -0.03730       -0.02660
C         -0.04430       -0.71740       -1.24230
N         -0.09020       -2.04640       -1.26810
C         -0.01050       -2.70390       -0.11460
C          0.11820       -2.00520        1.09060
O          0.19750       -2.68420        2.24830
N          0.16590       -0.67670        1.13690
H          0.21980        1.57880        0.90610
H         -0.10850       -0.17350       -2.17810
H         -0.04720       -3.78740       -0.12640
H          0.28100       -2.02880        2.95420
