18
gdb 11838	6.62138	1.11826	1.08986	0.7388	79.37	-0.2521	0.0514	0.3035	1129.3792	0.15304	-310.610457	-310.602611	-310.601667	-310.642653	30.408
C         -0.81810       -0.88990       -0.95990
C         -0.38220        0.10680       -0.44590
C          0.15700        1.29000        0.18960
C          0.06930        1.40930        1.75110
C          1.50720        1.94050        1.73970
C          1.94110        3.28170        2.25770
C          2.49240        2.00810        2.86320
C          1.71440        1.43490        0.30750
H         -1.20610       -1.76530       -1.41830
H         -0.26380        2.18770       -0.27400
H         -0.71330        2.06250        2.14510
H         -0.01560        0.42510        2.22050
H          2.60280        3.88130        1.64010
H          1.23260        3.85990        2.84300
H          2.15640        1.72780        3.85680
H          3.52580        1.74900        2.65450
H          2.20810        0.45970        0.26920
H          2.19510        2.10780       -0.40710
