16
gdb 16396	3.66288	2.24439	1.77113	3.6154	69.91	-0.2356	-0.049	0.1866	771.9165	0.133552	-346.621279	-346.61528	-346.614336	-346.651148	24.501
O          0.00140       -0.02850       -0.04810
C         -0.01240        1.18330        0.00060
C         -1.25740        1.99320        0.05470
C         -1.12320        3.32630        0.10700
C          0.26690        3.91800        0.10840
C          1.09920        3.20740       -1.00600
C          1.25720        2.03500        0.01500
C          1.13410        3.11970        1.13310
H         -2.20950        1.47490        0.04940
H         -1.98320        3.98820        0.14830
H          0.26300        5.00760        0.15310
H          0.60150        3.00450       -1.95680
H          2.05560        3.70640       -1.18430
H          2.13890        1.39550       -0.02560
H          2.09640        3.60380        1.32050
H          0.66740        2.83900        2.07990
