16
gdb 17209	4.5853	1.85466	1.63049	1.0707	64.66	-0.2339	0.0592	0.293	821.8376	0.130506	-383.672912	-383.666317	-383.665373	-383.703691	25.634
C         -0.27100        1.33990        0.11370
C          1.17330        0.87810       -0.04260
C          0.04800       -0.10360       -0.04340
O         -0.12500       -1.06370        1.01610
C         -0.48900       -2.08540        0.06850
C         -1.98860       -2.10610       -0.26850
O         -1.80010       -1.14140       -1.33800
C         -0.37960       -1.09720       -1.11110
H         -0.58140        1.66620        1.10040
H         -0.75560        1.85240       -0.71040
H          1.68830        1.07630       -0.97730
H          1.80280        0.90150        0.84040
H          0.05410       -3.01910        0.21610
H         -2.36530       -3.05910       -0.66040
H         -2.64460       -1.73810        0.52710
H          0.20650       -1.19220       -2.02670
