20
gdb 18520	5.27728	1.05203	0.99608	1.7944	74.75	-0.2491	0.0878	0.3369	1252.8972	0.176632	-348.970908	-348.96266	-348.961715	-349.004009	30.747
C         -0.01900        1.57940        0.01370
C         -0.03530        0.05040        0.09090
C         -1.43270       -0.54590       -0.11410
C         -1.46580       -2.06680       -0.02100
C         -1.23260       -2.75580        1.38130
C         -2.61790       -3.39810        1.24210
O         -3.56580       -2.33130        1.11010
C         -2.84720       -2.74880       -0.05740
H          0.98920        1.97760        0.16540
H         -0.37250        1.93090       -0.96220
H         -0.67020        2.01990        0.77690
H          0.65020       -0.36250       -0.66160
H          0.35760       -0.27000        1.06470
H         -2.12650       -0.13600        0.62960
H         -1.81620       -0.23910       -1.09770
H         -0.80080       -2.51460       -0.76820
H         -0.41050       -3.47500        1.36790
H         -1.12270       -2.09100        2.24210
H         -2.98500       -4.33740        1.63930
H         -3.43720       -3.05560       -0.91420
