13
gdb 201	8.67353	3.34371	2.44992	1.6978	55.32	-0.1982	0.0533	0.2515	528.9258	0.109903	-249.395323	-249.38964	-249.388696	-249.424242	20.948
C         -0.01850        1.52080        0.01560
C          0.00280        0.02150        0.01390
C         -0.05840       -0.79720       -1.09170
N         -0.01150       -2.10250       -0.66560
C          0.07910       -2.13680        0.70180
C          0.09010       -0.83800        1.15140
H          0.88790        1.94080        0.46760
H         -0.09130        1.91570       -1.00220
H         -0.86940        1.91560        0.58340
H         -0.13100       -0.55570       -2.14060
H         -0.03990       -2.90770       -1.26480
H          0.12760       -3.07390        1.23300
H          0.15380       -0.52800        2.18400
