18
gdb 5118	3.33445	1.97501	1.26758	1.364	76.15	-0.1845	0.0543	0.2388	973.8668	0.15417	-344.021026	-344.01209	-344.011146	-344.054826	31.846
C         -0.09120        1.45200        0.00210
N          0.01930        0.00940       -0.00810
C          0.12190       -0.77790       -1.12640
C          0.18170       -2.09210       -0.72870
C          0.09750       -2.12060        0.69320
C          0.12450       -3.32900        1.57940
C         -0.00470       -0.80550        1.10970
N         -0.07470       -0.21650        2.39460
H          0.59160        1.88330       -0.73520
H         -1.11030        1.78540       -0.23000
H          0.17490        1.81040        0.99720
H          0.13920       -0.33320       -2.10900
H          0.27580       -2.94660       -1.38270
H          1.10940       -3.81290        1.59740
H         -0.12790       -3.06660        2.61240
H         -0.59540       -4.08750        1.25090
H         -1.01310       -0.23210        2.78340
H          0.53480       -0.68990        3.05060
