10
gdb 912	6.05207	2.8452	1.93535	4.7817	49.87	-0.2557	-0.0481	0.2076	587.4329	0.068731	-359.354596	-359.349462	-359.348518	-359.383694	18.555
O          0.02380       -0.04890        0.00230
C         -0.01810        1.15890        0.00970
C         -1.26150        1.93950        0.03060
C         -1.21190        3.27630        0.03710
O         -0.03620        3.95860        0.02490
C          1.09390        3.20160        0.00570
N          1.17850        1.93660       -0.00230
H         -2.21020        1.41880        0.04060
H         -2.06130        3.94760        0.05210
H          1.96970        3.84500       -0.00270
