14
gdb 2130	3.89038	3.11025	1.76615	3.7808	60.24	-0.2407	-0.0171	0.2235	694.9269	0.114234	-324.635136	-324.628295	-324.627351	-324.666086	24.361
C          0.00600        1.50580       -0.00690
C         -0.03890        0.01590       -0.01140
C         -1.06670       -0.82580       -0.15440
C         -0.60220       -2.25820       -0.08760
N          0.81920       -2.10380        0.11140
C          1.21730       -0.78790        0.16570
O          2.34820       -0.37470        0.32390
H          0.66870        1.87170       -0.79860
H         -0.98570        1.94280       -0.14670
H          0.42520        1.87390        0.93590
H         -2.10770       -0.56640       -0.30060
H         -1.08270       -2.80260        0.73890
H         -0.83720       -2.80480       -1.01300
H          1.47160       -2.86300        0.20410
