19
gdb 3975	3.90163	1.0552	0.94402	1.5631	71.09	-0.2409	0.0109	0.2518	1268.2619	0.161999	-402.163339	-402.153281	-402.152337	-402.198918	35.582
C         -0.89060        0.24660       -0.16310
C          0.57240       -0.10640       -0.43130
O          1.30820        1.04680       -0.83170
C          1.33060       -0.65540        0.79030
C          0.80130       -1.96690        1.31590
C         -0.31470       -2.00940        2.32790
N          1.36960       -3.01740        0.85690
O          0.80240       -4.18750        1.39070
H         -0.96770        0.98850        0.63860
H         -1.35100        0.67160       -1.06300
H         -1.47510       -0.63540        0.11440
H          0.61560       -0.87660       -1.21800
H          0.86070        1.43550       -1.59000
H          2.37080       -0.78870        0.48430
H          1.30860        0.10310        1.58180
H         -1.16430       -2.58590        1.94730
H          0.02270       -2.52690        3.23240
H         -0.65310       -1.00810        2.59720
H          1.33710       -4.87470        0.97990
