13
gdb 370	6.78215	2.26625	1.80707	3.7371	50.15	-0.2896	0.035	0.3246	658.6943	0.107232	-286.504534	-286.497432	-286.496488	-286.535239	24.138
C         -0.03420        1.57120        0.00750
C          0.05310        0.03390       -0.01680
C          0.74560       -0.49200       -1.28710
O         -0.05240       -0.08670       -2.38310
C          0.74520       -0.47940        1.16800
N          1.30470       -0.88070        2.09620
H          0.96570        2.01400        0.03770
H         -0.54200        1.91250       -0.89580
H         -0.58810        1.91680        0.88320
H         -0.96300       -0.38010       -0.01170
H          1.76270       -0.07550       -1.34380
H          0.83230       -1.58640       -1.22920
H          0.38720       -0.35400       -3.19530
