16
gdb 17980	3.95086	1.74753	1.49811	1.6549	69.71	-0.2437	0.0412	0.2849	870.3742	0.130399	-346.530544	-346.523456	-346.522511	-346.562089	27.087
C         -0.36210       -1.22470       -0.48700
C         -0.21360       -0.05510       -0.24680
C         -0.01390        1.34570        0.06110
C         -0.05790        1.79850        1.57010
C          1.35230        2.41310        1.41720
O          2.39910        1.50850        1.81270
C          2.56590        1.03400        0.45250
C          1.43310        1.93640       -0.05940
H         -0.50390       -2.25460       -0.70330
H         -0.70650        1.95030       -0.53230
H         -0.85740        2.51260        1.78050
H         -0.09120        0.98640        2.29730
H          1.52270        3.43330        1.77030
H          3.55910        1.29040        0.06390
H          2.40640       -0.04620        0.36010
H          1.63490        2.57220       -0.91980
