11
gdb 632	7.51963	2.90459	2.40633	2.4867	42.9	-0.2507	0.012	0.2627	523.6706	0.084825	-322.435505	-322.429655	-322.42871	-322.464827	20.679
N          0.17500        1.10120       -0.51330
C         -0.17670        0.10910        0.34940
O          0.18640        0.02660        1.50560
C         -1.12640       -0.90510       -0.24500
C         -2.43160       -0.48480       -0.78360
O         -1.36010       -0.84270       -1.65620
H          0.86980        1.76620       -0.21700
H         -0.01570        0.98170       -1.49520
H         -1.02640       -1.90150        0.17830
H         -3.26630       -1.18240       -0.75880
H         -2.69400        0.57110       -0.77380
