9
gdb 94	12.18264	4.94228	3.68162	0.8477	35.94	-0.2647	-0.0352	0.2295	344.5473	0.066989	-267.068488	-267.063976	-267.063032	-267.095887	15.115
O         -0.00030        0.00680       -0.17140
C         -0.01420        1.18670       -0.00980
C         -1.08280        2.27650        0.15570
O         -0.03860        3.26460        0.27510
C          1.02860        2.30520        0.12770
H         -1.72920        2.43650       -0.71670
H         -1.70220        2.19350        1.05800
H          1.67370        2.23920        1.01320
H          1.64710        2.48220       -0.76150
