20
gdb 19202	2.5677	2.50546	2.458	0.1606	77.15	-0.236	0.0289	0.265	779.2412	0.182253	-311.897592	-311.891276	-311.890332	-311.927571	26.783
C         -0.03350        1.53540        0.01020
C          1.42380        2.07540       -0.00220
C          2.41300        0.87800       -0.03300
C          2.18480        0.04750        1.25990
C          0.72780       -0.49320        1.27090
C         -0.00430       -0.01760       -0.01400
C          0.81080       -0.45420       -1.20830
C          2.06280        0.00930       -1.21800
H         -0.56760        1.87220        0.90590
H         -0.59290        1.90620       -0.85320
H          1.59400        2.71520       -0.87260
H          1.62260        2.68490        0.88650
H          3.44420        1.23800       -0.07620
H          2.90500       -0.77450        1.30090
H          2.37320        0.68140        2.13370
H          0.71890       -1.58580        1.31600
H          0.18350       -0.13240        2.15090
H         -1.02170       -0.41630       -0.04130
H          0.39130       -1.09150       -1.98000
H          2.78550       -0.20490       -1.99850
