17
gdb 10091	3.09846	1.34385	0.98965	2.4199	68.36	-0.2701	-0.0093	0.2608	1181.1898	0.138906	-401.028008	-401.018507	-401.017563	-401.063125	31.884
C          2.64390       -1.17160        1.33430
C          2.68880       -0.25670        0.11340
C          2.84560        1.20120        0.43880
O          2.75820        1.99170       -0.72950
C          3.87750        2.63040       -1.15810
O          3.87960        3.34090       -2.11470
N          2.98120        1.65880        1.59920
C          3.06250        3.07810        1.88500
H          2.52410       -2.21270        1.02190
H          3.56110       -1.08730        1.92190
H          1.81090       -0.90690        1.99000
H          3.50910       -0.53920       -0.56120
H          1.77940       -0.35710       -0.49330
H          4.75960        2.40380       -0.53280
H          2.36930        3.30240        2.70190
H          4.06740        3.31500        2.25160
H          2.83030        3.73470        1.03850
