17
gdb 12396	3.08725	2.21072	1.36435	5.0219	65.47	-0.2397	0.0551	0.2949	901.2902	0.144105	-401.049534	-401.041881	-401.040937	-401.081765	27.652
C         -0.06120        1.44210        0.05520
N          0.01230       -0.00600       -0.02760
C         -1.26190       -0.70830       -0.09960
C         -1.06110       -2.16180       -0.50700
C          0.11150       -2.70880        0.28490
O          1.29430       -1.96010       -0.00030
C          1.25380       -0.59820       -0.01850
O          2.29440        0.01510       -0.04070
H          0.95060        1.83580        0.12590
H         -0.55080        1.85740       -0.83510
H         -0.63830        1.74990        0.93710
H         -1.77340       -0.65470        0.87470
H         -1.90630       -0.18870       -0.82050
H         -1.96930       -2.73970       -0.31240
H         -0.83570       -2.23340       -1.57630
H         -0.09470       -2.67210        1.36410
H          0.34960       -3.74140        0.01940
