20
gdb 12102	4.32812	1.33441	1.17992	1.0337	75.66	-0.237	0.0928	0.3298	1099.5676	0.175351	-348.968173	-348.959687	-348.958743	-349.001171	32.484
C         -0.32030        1.43480       -0.84520
C         -0.08460        0.11830       -0.13840
C          1.27240       -0.51370       -0.16040
C          0.73350        0.07380        1.13110
O         -1.12930       -0.82050       -0.23950
C         -2.29100       -0.48450        0.46300
C         -3.44110        0.16760       -0.26320
C         -3.50340       -1.29370        0.13780
H          0.56770        2.06990       -0.77730
H         -0.54010        1.26660       -1.90490
H         -1.15990        1.98110       -0.40500
H          1.30130       -1.59430       -0.23730
H          2.07470        0.00430       -0.67450
H          1.16670        0.99520        1.50560
H          0.42370       -0.62740        1.89760
H         -2.11650       -0.20460        1.50110
H         -4.05700        0.88520        0.26850
H         -3.29590        0.38030       -1.31590
H         -3.39170       -2.02670       -0.65310
H         -4.16210       -1.59150        0.94570
