12
gdb 21358	5.48549	2.20725	1.57393	4.8924	61.99	-0.22	-0.0135	0.2065	726.0851	0.087396	-377.520764	-377.515322	-377.514378	-377.550081	21.485
N         -0.02810        1.40460        0.01040
C          1.28750        1.82150       -0.00020
C          2.14480        0.73580       -0.01460
C          1.28490       -0.38840       -0.01250
C         -0.03070        0.03030        0.00280
C         -0.77960       -1.16610        0.00340
N          0.02000       -2.21420       -0.01020
O          1.34510       -1.73020       -0.02050
H         -0.82640        2.01290        0.02160
H          1.52150        2.87480        0.00330
H          3.22110        0.77240       -0.02500
H         -1.84630       -1.33630        0.01290
