14
gdb 16271	3.54952	1.87482	1.39322	2.9174	64.09	-0.2478	-0.0423	0.2055	862.2983	0.106128	-382.541961	-382.534863	-382.533919	-382.573513	25.885
O         -0.96120        1.23800       -0.19550
C          0.15350        0.88480        0.11520
C          1.34440        1.75170        0.03510
C          1.19900        3.28090        0.01850
C          1.80270        2.67500       -1.17380
C          3.27430        2.31730       -0.91700
C          2.78230        1.36250        0.20390
O          3.31720        0.48560        0.82130
H          0.36020       -0.14590        0.47000
H          0.15700        3.57530       -0.05500
H          1.80400        3.86260        0.70800
H          1.31170        2.65820       -2.13730
H          3.75190        1.74620       -1.71720
H          3.92640        3.14570       -0.62590
