8
gdb 168	10.04746	9.93509	4.99548	5.498	35.27	-0.2551	0.0164	0.2715	266.6747	0.059116	-242.196351	-242.192733	-242.191789	-242.222534	12.36
N         -0.03000        1.36070        0.01020
C          1.28240        1.73870       -0.00060
N          2.06000        0.68810       -0.01430
N          1.24290       -0.42820       -0.01230
C          0.00640       -0.00450        0.00230
H         -0.84190        1.95510        0.02160
H          1.60450        2.76820        0.00190
H         -0.87750       -0.62270        0.00770
