16
gdb 15964	3.06139	1.94363	1.37217	4.6592	69.12	-0.2487	0.012	0.2607	908.7011	0.131609	-342.753921	-342.746581	-342.745637	-342.785657	27.461
N         -0.25870       -0.88800       -0.81820
C         -0.14690        0.16850       -0.36290
C          0.01850        1.52370        0.16810
N          0.15540        1.61350        1.64170
C          1.29950        2.55740        1.52170
C          1.41040        2.17900        0.04300
C          2.59830        1.62150       -0.67380
C          1.98320        2.93230       -1.11310
H         -0.77410        2.15600       -0.25760
H         -0.66420        1.97540        2.11540
H          1.03840        3.61300        1.67950
H          2.14770        2.30130        2.16540
H          3.55320        1.64810       -0.15910
H          2.44730        0.74830       -1.29990
H          1.42240        2.94680       -2.04230
H          2.52030        3.85160       -0.90220
