16
gdb 1181	3.92107	1.945	1.83615	4.7434	61.07	-0.2748	0.0267	0.3015	790.4069	0.134047	-325.781398	-325.772892	-325.771948	-325.814076	29.887
C         -0.06960        1.39600        0.10790
O          0.01580       -0.01020       -0.01990
C          0.67400       -0.51900       -1.17860
C         -0.05740       -0.14010       -2.48130
C          2.16150       -0.11840       -1.23040
C          0.59460       -1.98900       -1.01210
N          0.55530       -3.13950       -0.92240
H          0.91600        1.87590        0.16900
H         -0.63950        1.86100       -0.70720
H         -0.59940        1.57650        1.04560
H          0.04440        0.92980       -2.68000
H          0.37120       -0.68340       -3.32700
H         -1.11780       -0.39090       -2.40460
H          2.64840       -0.35380       -0.28130
H          2.67130       -0.66130       -2.03010
H          2.26300        0.95130       -1.42990
