18
gdb 8902	3.67697	1.16366	1.06154	2.2396	69.66	-0.256	0.0459	0.3019	1162.9916	0.150937	-384.897766	-384.888216	-384.887271	-384.932007	34.753
C         -0.13170        1.62370        0.03790
C         -0.02140        0.08450       -0.02570
C         -1.35090       -0.52270        0.00290
C         -2.44850       -1.01170        0.02390
C          0.79010       -0.43250       -1.24370
O          0.29300        0.04810       -2.49140
C          2.29310       -0.14500       -1.15520
O          2.95740       -0.65660       -2.28980
H          0.85340        2.09770        0.06410
H         -0.69150        2.01210       -0.81880
H         -0.67590        1.92240        0.93660
H          0.52330       -0.25170        0.86810
H         -3.41460       -1.45200        0.04160
H          0.66300       -1.51800       -1.30200
H          0.31300        1.01200       -2.47050
H          2.46570        0.94090       -1.04950
H          2.72250       -0.63180       -0.27220
H          2.37290       -0.46660       -3.03570
