15
gdb 5536	3.38239	1.90642	1.26252	1.6274	64.97	-0.1901	0.0225	0.2126	935.8353	0.120543	-395.997351	-395.989509	-395.988565	-396.029795	27.968
C          0.22680        1.45510        0.05050
N         -0.28940        0.12300       -0.25780
C          0.41920       -0.67370       -1.12730
C          0.68090       -2.01120       -1.15690
N          0.31400       -2.93700       -0.15470
N          1.36180       -2.30240       -2.34130
C          1.48380       -1.16740       -2.93510
O          0.92470       -0.11390       -2.26090
H          1.21370        1.44260        0.53730
H          0.30740        2.03350       -0.87220
H         -0.48340        1.96150        0.70780
H         -0.53390       -0.42010        0.56120
H         -0.38160       -3.59410       -0.49860
H          1.11530       -3.49320        0.12990
H          1.97030       -0.93070       -3.86720
