15
gdb 9131	4.02424	0.87571	0.76015	2.6605	70.4	-0.2741	0.0078	0.282	1448.8099	0.11709	-362.638491	-362.629234	-362.62829	-362.674095	31.131
C         -0.15870        1.45190        0.05180
C          0.03860       -0.08460        0.02540
C          0.68890       -0.50000       -1.23060
N          1.18670       -0.81160       -2.22520
C          0.79000       -0.56300        1.18720
C          1.39670       -0.92550        2.16130
C          2.13960       -1.42920        3.31840
O          1.71070       -2.71020        3.75060
H          0.80740        1.95990        0.03170
H         -0.74490        1.77100       -0.81310
H         -0.68490        1.73170        0.96660
H         -0.95410       -0.55560        0.03350
H          3.21620       -1.41790        3.08600
H          1.99440       -0.76070        4.17410
H          1.77790       -3.30880        2.99910
