15
gdb 16941	3.73167	2.20136	2.00806	5.1851	59.59	-0.2388	0.0114	0.2502	726.3209	0.122586	-399.830327	-399.824518	-399.823574	-399.860116	23.359
O         -0.00830       -0.00280       -0.07260
C          0.02830        1.18770       -0.02010
O         -1.09530        1.97810        0.04510
C         -0.62990        3.35560        0.09320
C          0.00420        3.55150        1.48060
N          1.21840        2.69020        1.40000
C          1.20790        2.16980        0.00650
C          0.59880        3.31390       -0.82900
H         -1.46210        4.00830       -0.16070
H          0.24620        4.60400        1.66470
H         -0.67170        3.20600        2.26830
H          2.05630        3.24300        1.54020
H          2.15530        1.72350       -0.28350
H          0.34270        3.04320       -1.85580
H          1.19540        4.22940       -0.81360
