10
gdb 23834	3.42417	2.46076	1.4318	2.4156	51.8	-0.2656	-0.0832	0.1824	746.5158	0.062127	-454.770829	-454.765048	-454.764104	-454.800972	21.117
F          0.01530        0.07820        0.00380
C         -0.03170        1.38850        0.01120
N         -1.16390        1.97950        0.02920
C         -1.14070        3.35390        0.03620
N         -0.08170        4.10260        0.02610
N          1.08990        3.43860        0.00730
C          1.28520        2.06380       -0.00240
O          2.37510        1.53720       -0.01950
H         -2.09740        3.85980        0.05130
H          1.91930        4.01930       -0.00050
