17
gdb 9206	6.91525	0.85482	0.77154	2.9571	66.79	-0.2507	-0.03	0.2207	1435.7629	0.139937	-401.051908	-401.042511	-401.041567	-401.088477	31.351
C          0.06330        1.53190        0.00820
C         -0.05550        0.00970        0.00310
C         -1.48860       -0.48760        0.01470
O         -2.44290        0.25900        0.02670
C         -1.68240       -1.99950        0.01070
N         -3.08740       -2.31240        0.02330
C         -3.54580       -3.58630        0.01490
O         -2.83630       -4.57190       -0.00080
H          1.11380        1.83400       -0.00090
H         -0.42930        1.96520       -0.86570
H         -0.41200        1.95790        0.89510
H          0.44180       -0.42620       -0.87440
H          0.45860       -0.43340        0.86720
H         -1.18410       -2.42770       -0.87040
H         -1.16660       -2.43430        0.87840
H         -3.71320       -1.51900        0.03300
H         -4.65260       -3.63170        0.02460
