11
gdb 437	8.5241	3.71634	2.63002	3.4388	48.64	-0.2323	-0.0049	0.2275	470.3702	0.08707	-281.491976	-281.486859	-281.485915	-281.520391	18.459
N         -0.07450        1.29730        0.00750
C          0.00070        0.03060        0.00070
C         -1.16790       -0.95370        0.00260
N         -0.58720       -2.30520       -0.00790
C          0.67620       -2.13380       -0.01440
N          1.11440       -0.81600       -0.01000
H          0.84720        1.73750        0.00440
H         -1.79850       -0.81320        0.88660
H         -1.80900       -0.80410       -0.87240
H          1.40500       -2.93850       -0.02290
H          2.07380       -0.51300       -0.01470
