15
gdb 19901	6.09559	1.43726	1.41076	3.6984	67.08	-0.2309	0.004	0.2349	896.4234	0.118677	-362.590111	-362.583573	-362.582629	-362.620883	25.246
O          0.07900        0.04880        0.41680
C          0.04390        1.19560        0.03980
N          1.08090        1.86030       -0.58650
C          2.46970        1.77940       -0.16720
C          3.39000        2.37660       -1.27460
C          2.60620        2.88750       -2.45210
C          2.62520        3.69470       -1.18250
C          1.72430        3.07010       -0.07560
H         -0.86380        1.82750        0.09470
H          2.75760        1.08630        0.61170
H          4.45940        2.21720       -1.29660
H          3.21240        3.29700       -3.25370
H          1.70090        2.38370       -2.76920
H          3.01610        4.70130       -1.12290
H          1.33340        3.57620        0.79850
