18
gdb 12741	2.72947	2.07752	1.7103	1.4285	66.64	-0.2371	0.0644	0.3015	858.7537	0.153378	-384.908843	-384.901003	-384.900059	-384.940679	30.379
O          0.55000        0.85600       -0.87210
C          0.10300       -0.21230       -0.07450
C          0.17880       -0.13700        1.48010
C         -1.24720       -0.75840        1.57640
C         -2.36240        0.28100        1.82630
C         -2.35870        0.64500        0.30950
C         -1.40130       -0.55660        0.02740
O         -1.90260       -1.58440       -0.77860
H          0.16890        1.66930       -0.52480
H          0.62760       -1.09990       -0.44270
H          0.99100       -0.70490        1.93740
H          0.22530        0.89000        1.85960
H         -1.32040       -1.73850        2.04580
H         -3.30560       -0.17650        2.13450
H         -2.12270        1.08510        2.52810
H         -3.32400        0.53130       -0.18730
H         -1.96290        1.63530        0.05940
H         -1.86850       -1.28700       -1.69550
