15
gdb 14254	4.0395	1.80816	1.66289	3.0683	62.38	-0.2605	0.0041	0.2646	824.8696	0.119021	-399.769577	-399.762727	-399.761783	-399.800659	25.805
C          0.45310        1.48810       -0.00830
C          0.11840        0.01690        0.07580
O          0.89560       -0.81490       -0.84140
C          1.30020       -1.70250        0.22040
C          0.61100       -0.81550        1.27370
O          1.91170       -0.39630        1.77860
C          2.58210       -1.24020        0.89330
N          3.80110       -1.48320        0.76140
H          1.49490        1.66590        0.26540
H          0.28970        1.84690       -1.02860
H         -0.19180        2.06320        0.66460
H         -0.95150       -0.15860       -0.10290
H          1.14220       -2.75880        0.00620
H         -0.06170       -1.11660        2.07370
H          4.36970       -0.93720        1.41140
