12
gdb 581	13.22277	1.83311	1.72507	2.8138	47.21	-0.2535	-0.0285	0.2249	676.0308	0.094736	-306.349032	-306.342772	-306.341828	-306.379643	20.727
O         -0.53660        0.47850        0.43160
C          0.24330        0.95010       -0.35430
C          1.33420        1.94210        0.00800
C          1.31040        3.15530       -0.89760
C          2.54130        3.79360       -1.37920
O          1.77050        2.95040       -2.23640
H          0.21660        0.67850       -1.43260
H          1.21790        2.22650        1.05820
H          2.29970        1.43380       -0.11530
H          0.41240        3.77090       -0.82920
H          2.53770        4.85120       -1.63740
H          3.50580        3.39240       -1.07050
