16
gdb 15336	3.94882	1.01902	0.87671	2.4173	70.65	-0.2504	0.0227	0.273	1317.4035	0.128067	-383.686499	-383.677363	-383.676418	-383.721999	30.965
C          0.15800        1.50410        0.15590
C          0.04190        0.05490        0.10280
C         -0.06260       -1.14470        0.06470
C         -0.12590       -2.58000        0.00400
O         -0.78640       -3.27670        1.07940
C         -1.38100       -3.33040       -0.22200
C         -2.72840       -2.66320       -0.33470
O         -3.72330       -3.41820        0.33690
H          1.20140        1.82190        0.05590
H         -0.41540        1.97980       -0.64720
H         -0.21830        1.89230        1.10860
H          0.79660       -3.06420       -0.31690
H         -1.30280       -4.30730       -0.70210
H         -2.66120       -1.63700        0.05060
H         -3.03440       -2.61380       -1.38530
H         -3.44440       -3.48520        1.25720
