16
gdb 2685	9.04668	1.01294	0.95911	4.5781	62.7	-0.2469	0.0106	0.2575	1202.5444	0.1352	-362.899149	-362.890643	-362.889698	-362.933235	28.231
C          0.01820        1.32080        0.05420
O          0.03950       -0.09090       -0.12840
C         -1.14690       -0.71260       -0.00610
N         -1.24180       -1.95560       -0.17410
C         -2.54890       -2.57490       -0.04480
C         -2.79460       -3.44730       -1.28030
O         -1.76280       -4.39420       -1.44840
H          1.05160        1.65670       -0.03560
H         -0.58820        1.81530       -0.71410
H         -0.36220        1.59150        1.04650
H         -1.98850       -0.05070        0.25210
H         -2.53660       -3.22590        0.83870
H         -3.36710       -1.84520        0.07850
H         -3.73330       -4.00100       -1.16770
H         -2.89430       -2.79480       -2.16450
H         -0.94160       -3.90440       -1.30670
