14
gdb 4875	4.78017	1.39552	1.12212	2.3368	60.46	-0.2006	0.0297	0.2303	1000.4317	0.10835	-415.885677	-415.878111	-415.877167	-415.917935	27.516
O          0.08720        1.35010       -0.31910
C         -0.01860        0.05910        0.27770
C         -1.38440       -0.52550        0.12300
N         -1.68940       -1.75770       -0.20130
C         -3.07060       -1.82740       -0.19470
C         -3.58870       -0.60090        0.13140
O         -4.83450       -0.08920        0.26710
N         -2.51800        0.22570        0.33980
H         -0.06390        1.24170       -1.26450
H          0.70510       -0.66050       -0.12470
H          0.22690        0.21990        1.33450
H         -3.60020       -2.73810       -0.42860
H         -5.47180       -0.78310        0.07180
H         -2.55440        1.21090        0.54390
