16
gdb 14579	13.57116	0.60054	0.58336	0.0005	70.33	-0.3267	0.0209	0.3476	1749.3622	0.130306	-342.823969	-342.815137	-342.814193	-342.858512	29.779
N         -0.03080       -1.19180       -0.00440
C         -0.03970       -0.03650        0.00230
C         -0.02370        1.42450        0.01040
C          1.40750        1.99700       -0.00070
C          1.40680        3.52750        0.00770
C          2.83800        4.10010       -0.00330
C          2.85380        5.56110        0.00430
N          2.84500        6.71640        0.01110
H         -0.58390        1.78350       -0.86110
H         -0.56630        1.77360        0.89680
H          1.95190        1.61510        0.87030
H          1.93450        1.62470       -0.88650
H          0.86240        3.90950       -0.86330
H          0.87970        3.89990        0.89350
H          3.39810        3.74130        0.86820
H          3.38070        3.75080       -0.88960
