19
gdb 4943	4.92644	1.27053	1.10875	1.8906	79.46	-0.1953	0.0503	0.2456	1144.5686	0.165985	-327.972209	-327.96369	-327.962745	-328.005688	31.12
C         -0.06820        1.53920        0.00690
C          0.03460        0.01080        0.00250
N          0.72490       -0.52450        1.16240
C          2.07930       -0.72110        1.26750
C          2.35900       -1.13820        2.54760
C          1.12620       -1.19700        3.26320
C          0.92660       -1.61500        4.68940
C          0.14530       -0.80760        2.37770
H          0.92600        1.99520        0.01660
H         -0.59920        1.88770       -0.88480
H         -0.61050        1.88940        0.88990
H         -0.96470       -0.43560       -0.03190
H          0.56580       -0.33040       -0.89200
H          2.72430       -0.55080        0.41930
H          3.33650       -1.39240        2.93040
H          1.49390       -0.98220        5.38240
H         -0.12770       -1.55210        4.97560
H          1.25290       -2.64770        4.86230
H         -0.92180       -0.71390        2.51140
