16
gdb 13314	5.72332	1.23205	1.07371	1.6738	66.62	-0.2509	0.0545	0.3054	1081.3415	0.129736	-383.704648	-383.696666	-383.695722	-383.738439	28.194
C          0.01680       -1.22280        0.16150
C         -0.00720       -0.03620       -0.02430
C         -0.02920        1.40440       -0.23140
C          1.34660        2.05230       -0.06160
O          2.23160        1.65170       -1.09450
C          2.90460        2.80900       -1.58320
C          2.45990        3.92140       -0.62280
O          1.20420        3.44890       -0.15880
H          0.03770       -2.27280        0.31630
H         -0.38890        1.64970       -1.23680
H         -0.70960        1.88050        0.48450
H          1.78540        1.77610        0.91350
H          3.98740        2.64470       -1.57140
H          2.58880        3.00990       -2.61460
H          3.16720        4.03590        0.21220
H          2.31170        4.89130       -1.10160
