13
gdb 4283	4.05253	1.88211	1.28522	4.5035	65.3	-0.2139	-0.0204	0.1935	870.3946	0.09711	-398.628385	-398.621858	-398.620914	-398.658955	25.047
O          0.04340        1.32980        0.00790
C         -0.04180       -0.00730        0.00100
C         -1.19530       -0.69450        0.00360
C         -1.19740       -2.14930       -0.00440
N         -2.30340       -2.80940       -0.00190
C          0.15470       -2.72490       -0.01510
C          1.24230       -1.95040       -0.01690
O          1.19080       -0.58320       -0.00900
H          0.97710        1.57460        0.00410
H         -2.13400       -0.15810        0.01180
H         -2.11330       -3.81360       -0.00860
H          0.27960       -3.80190       -0.02180
H          2.26760       -2.29500       -0.02450
