17
gdb 11702	5.53724	1.3405	1.22291	4.4868	74.14	-0.268	0.021	0.289	1010.4648	0.142928	-326.722119	-326.714598	-326.713654	-326.753705	28.586
C         -0.12590        1.56950        0.05530
C          0.07640        0.06030        0.02530
C          1.16260       -0.54750       -0.92990
C          1.79990       -1.26730        0.27320
C          2.21390       -0.25350        1.31640
C          0.76600       -0.61730        1.22180
C          2.29370       -2.60360        0.26550
N          2.68720       -3.69270        0.24440
H          0.81000        2.10150        0.25420
H         -0.51370        1.92830       -0.90400
H         -0.84320        1.85400        0.83260
H         -0.88060       -0.43290       -0.16750
H          0.74490       -1.23100       -1.67000
H          1.82230        0.16430       -1.43550
H          2.73970       -0.66270        2.17200
H          2.57860        0.71540        0.98580
H          0.25570       -1.09360        2.05010
