17
gdb 4182	4.83996	1.43892	1.2722	0.9635	72.07	-0.2382	0.007	0.2452	979.5217	0.14239	-363.794188	-363.786831	-363.785887	-363.826182	28.027
O         -0.06170        1.34220        0.32580
N          0.05670       -0.06160        0.37860
C         -1.01910       -0.61850        0.00900
C         -2.40230       -0.15190       -0.40990
C         -2.81920       -1.64820       -0.52970
C         -2.57280       -2.28340       -1.92350
C         -1.13930       -2.71560       -1.48940
C         -1.36530       -2.08570       -0.07930
H          0.80100        1.62900        0.64360
H         -2.91300        0.39850        0.38720
H         -2.45680        0.44950       -1.32290
H         -3.71910       -1.94490        0.00800
H         -3.22990       -3.12880       -2.14100
H         -2.63040       -1.58670       -2.76460
H         -1.01180       -3.79970       -1.44660
H         -0.30640       -2.29520       -2.05700
H         -1.14100       -2.70680        0.78860
