16
gdb 12767	2.98021	1.97897	1.58448	1.594	64.62	-0.2423	-0.025	0.2173	854.8916	0.12914	-383.712436	-383.70485	-383.703906	-383.744427	28.331
O          0.06840        1.40230        0.23720
C          0.04010        0.02560        0.14330
C         -0.18080       -0.69850       -1.15400
C         -1.17430       -0.87780       -0.02870
C         -0.61140       -1.87610        0.99240
C          0.61360       -0.90660        1.21340
C          2.01250       -1.43280        1.03850
O          2.80510       -1.00370        0.23640
H          0.87190        1.70990       -0.19820
H         -0.52370       -0.04820       -1.95240
H          0.46090       -1.51480       -1.47560
H         -2.21800       -0.61150       -0.13440
H         -1.22000       -1.99220        1.89040
H         -0.37120       -2.86760        0.59520
H          0.54300       -0.45780        2.21160
H          2.28770       -2.27310        1.71880
