17
gdb 1512	8.41075	1.18516	1.0677	3.4827	62.09	-0.2436	-0.0086	0.235	1119.7258	0.145021	-346.861026	-346.852067	-346.851122	-346.895676	29.599
C         -0.01780        1.50340        0.13190
C         -0.03030       -0.00370       -0.11390
C          0.72190       -0.41300       -1.37550
O          1.12680        0.38460       -2.18320
C          0.92600       -1.91820       -1.54120
O          1.49540       -2.20200       -2.78160
C          1.72870       -3.57720       -2.97480
H          1.00300        1.86780        0.27550
H         -0.43490        2.03730       -0.72490
H         -0.60250        1.75560        1.02070
H          0.38760       -0.55340        0.74030
H         -1.06090       -0.37340       -0.21470
H          1.56490       -2.26670       -0.70700
H         -0.04760       -2.42600       -1.40750
H          2.42330       -3.98440       -2.22270
H          0.79580       -4.16190       -2.93130
H          2.17280       -3.69330       -3.96590
