18
gdb 17500	3.02385	2.38817	1.63254	3.0506	71.88	-0.1936	0.076	0.2696	847.7624	0.153027	-343.882774	-343.875146	-343.874202	-343.913997	30.118
C         -0.05760        1.55460        0.13150
C          0.08380        0.06730        0.04320
N         -0.85090       -0.86930        0.71150
C          0.60750       -0.93650        0.99740
C          1.30970       -1.69790       -0.16620
N          0.28100       -2.09680       -1.16410
C          0.79850       -0.70780       -1.14130
C          1.42920       -0.05810       -2.33280
H          0.86580        2.06610       -0.16130
H         -0.86120        1.92050       -0.51890
H         -0.29280        1.85980        1.15710
H         -1.26420       -0.34770        1.48680
H          0.99720       -0.81290        2.00000
H          2.27070       -2.19370       -0.11030
H          0.78750       -2.57270       -1.91300
H          0.67530        0.25400       -3.06570
H          2.00580        0.82960       -2.05070
H          2.11440       -0.75130       -2.83310
