17
gdb 6287	4.19538	1.11495	0.92352	5.6182	65.32	-0.2799	0.0255	0.3054	1218.8948	0.140667	-401.010349	-401.001421	-401.000477	-401.043956	32.342
C          0.00970        1.53960        0.01960
C         -0.01530        0.01540        0.06240
O          0.68590       -0.47570        1.22070
C         -1.43890       -0.55330       -0.01130
C         -1.45850       -2.09690       -0.05150
O         -0.96330       -2.68610        1.12930
C         -2.83690       -2.57670       -0.25920
N         -3.92160       -2.92170       -0.45440
H          1.03730        1.90340        0.10140
H         -0.41870        1.91350       -0.91500
H         -0.57500        1.96270        0.84580
H          0.56620       -0.37900       -0.78020
H          0.33920       -0.01350        1.99350
H         -2.02360       -0.21710        0.85390
H         -1.93300       -0.16660       -0.90950
H         -0.87680       -2.42430       -0.93180
H         -0.16750       -2.17770        1.35680
