19
gdb 2706	13.06975	0.76781	0.75543	2.852	69.58	-0.2476	-0.0186	0.229	1499.9313	0.1695	-310.940708	-310.931691	-310.930747	-310.97521	30.512
C          0.00980        1.60160       -0.08020
C          0.01330        0.07180       -0.01900
C         -1.39450       -0.52950        0.05270
C         -1.39690       -2.06060        0.11460
C         -2.81370       -2.65610        0.19700
C         -2.79400       -4.16580        0.14960
O         -3.26790       -4.89420        0.98280
H          1.02740        2.00160       -0.12730
H         -0.53070        1.96180       -0.96260
H         -0.47650        2.03170        0.80240
H          0.53390       -0.33010       -0.89830
H          0.59240       -0.25920        0.85310
H         -1.91680       -0.12950        0.93240
H         -1.97650       -0.20140       -0.81990
H         -0.88400       -2.46270       -0.76980
H         -0.81520       -2.39380        0.98360
H         -3.33180       -2.34070        1.10750
H         -3.39920       -2.30670       -0.66660
H         -2.27880       -4.58510       -0.74820
