14
gdb 3415	4.88676	2.93489	2.11901	3.2311	58.54	-0.2525	0.0267	0.2792	624.8486	0.116025	-324.584396	-324.578789	-324.577844	-324.613678	21.695
N         -0.09390        1.23980        0.25670
C         -0.04320        0.00480       -0.00160
O          1.11550       -0.69380       -0.24560
C          0.83020       -1.96800       -0.84980
C         -0.64630       -2.22760       -0.61350
C         -1.10180       -2.14590        0.81090
C         -1.20040       -0.92270       -0.08330
H          0.84040        1.65020        0.21410
H          1.05820       -1.91280       -1.92150
H          1.49000       -2.70970       -0.38840
H         -1.18900       -2.83270       -1.32870
H         -2.03780       -2.62910        1.06570
H         -0.35840       -2.14650        1.60180
H         -2.16690       -0.51700       -0.34610
