8
gdb 3840	5.66168	3.22484	2.18042	1.3934	46.12	-0.2842	-0.1201	0.1641	528.0038	0.041434	-387.475673	-387.470305	-387.469361	-387.504808	18.939
N         -0.08280        1.27330        0.07220
C         -0.01230        0.02320       -0.07530
N          1.18640       -0.71040       -0.24670
N          1.24700       -1.85400        0.22340
O          0.09290       -2.36340        0.84710
N         -1.17980       -1.88810        0.31930
N         -1.20090       -0.74900       -0.13080
H          0.85730        1.67730        0.07580
