15
gdb 2789	4.31724	2.30128	1.60851	3.2842	57.44	-0.2493	-0.0302	0.2191	758.8772	0.124721	-345.65887	-345.651862	-345.650918	-345.690104	25.415
O         -0.23770        1.54160       -0.02540
C         -0.01820        0.16850       -0.27130
C         -1.29320       -0.63840       -0.01990
C         -1.25550       -2.19660        0.09540
C         -2.01240       -2.12550        1.46120
C         -1.75690       -0.61450        1.44050
O         -1.74040        0.25110        2.27490
H         -0.58450        1.61110        0.87420
H          0.30190        0.07610       -1.31460
H          0.79520       -0.23390        0.35630
H         -2.08710       -0.28570       -0.68780
H         -1.75400       -2.74810       -0.70170
H         -0.23700       -2.57710        0.20640
H         -3.07980       -2.35340        1.37300
H         -1.60960       -2.67490        2.31550
