22
gdb 14727	7.28317	0.54766	0.53691	0.148	88.92	-0.2384	0.0634	0.3018	2182.2007	0.198381	-313.061893	-313.051241	-313.050297	-313.100164	36.547
C          0.37230        1.49730       -0.23480
C         -0.03610        0.04990        0.05190
C          0.70910       -0.55700        1.24420
C          0.29350       -2.01460        1.52810
C          0.99650       -2.60550        2.66210
C          1.58760       -3.06300        3.60720
C          2.31320       -3.64480        4.73230
C          3.35740       -4.69140        4.30260
H          1.44240        1.56950       -0.45860
H         -0.17500        1.90510       -1.09030
H          0.17200        2.14300        0.62750
H         -1.11750        0.00380        0.23820
H          0.14350       -0.56560       -0.83980
H          1.79060       -0.52410        1.06440
H          0.52930        0.04560        2.14270
H         -0.79010       -2.05280        1.70560
H          0.46950       -2.62140        0.62920
H          2.80980       -2.84640        5.29910
H          1.60040       -4.10580        5.42860
H          3.87470       -5.09840        5.17690
H          2.88120       -5.51790        3.76800
H          4.10230       -4.24600        3.63750
