15
gdb 16860	4.08885	2.07632	1.6236	4.4928	62.31	-0.2426	0.0454	0.2881	792.6125	0.120721	-399.792726	-399.786277	-399.785333	-399.82352	24.888
N         -0.10440        1.15200        0.54040
C         -0.00480        0.04700       -0.05890
O          1.17020       -0.63250       -0.19340
C          1.33990       -1.52300       -1.30610
C          0.18180       -2.48360       -1.41010
C         -0.47830       -2.95030       -0.12530
C         -1.10910       -1.87770       -0.96950
O         -1.11670       -0.52470       -0.57010
H          0.82300        1.47300        0.81030
H          1.43580       -0.93780       -2.23080
H          2.29020       -2.02940       -1.11850
H          0.19480       -3.14160       -2.27290
H         -0.95550       -3.92350       -0.11780
H         -0.01980       -2.65800        0.81240
H         -2.03490       -2.08260       -1.49140
