15
gdb 5590	3.43723	1.92669	1.25254	1.6364	63.98	-0.1888	0.038	0.2268	932.2324	0.120424	-396.001527	-395.993552	-395.992608	-396.034231	28.234
C         -0.04510        1.39850        0.06990
O         -0.00300       -0.02280        0.04610
C         -1.20330       -0.64340        0.01930
C         -1.37130       -2.01120       -0.00600
N         -0.51150       -3.12630       -0.01310
N         -2.75160       -2.17020       -0.02750
C         -3.31430       -0.94090       -0.01450
N         -2.39830        0.01280        0.01410
H          0.99550        1.72800        0.08960
H         -0.54770        1.79730       -0.81770
H         -0.57170        1.76690        0.95660
H          0.10470       -3.11770       -0.82000
H          0.08280       -3.14490        0.80990
H         -3.21470       -3.06360       -0.04880
H         -4.38200       -0.78430       -0.02640
