20
gdb 19705	5.093	1.70275	1.54245	0.0319	78.75	-0.2821	0.1043	0.3864	910.2253	0.179923	-311.840542	-311.833894	-311.83295	-311.870883	27.506
C         -0.18400        1.58110       -0.00290
C          0.01280        0.07200        0.02270
C          1.23820       -0.59500       -0.66070
C          2.15600       -0.15680        0.52880
C          3.21770       -1.23250        0.76600
C          2.35860       -2.50920        0.54390
C          1.01160       -1.85870        0.23300
C          0.80410       -0.62060        1.16630
H          0.73200        2.13390        0.22240
H         -0.53400        1.90840       -0.98850
H         -0.94190        1.88430        0.72840
H         -0.93590       -0.42830       -0.20970
H          1.49860       -0.58830       -1.72260
H          2.46560        0.88450        0.61690
H          4.04940       -1.15340        0.05810
H          3.64160       -1.17750        1.77410
H          2.72120       -3.12520       -0.28540
H          2.31330       -3.14930        1.43110
H          0.15400       -2.50090        0.02020
H          0.55900       -0.64370        2.23160
