16
gdb 18359	3.46727	2.24289	1.68188	1.6752	65.24	-0.2332	0.0175	0.2507	789.5722	0.133042	-379.891127	-379.884495	-379.88355	-379.921683	26.148
O          0.02880        1.46960        0.07980
C          0.05680        0.05780       -0.02990
C          0.49430       -0.61210        1.32250
N         -0.74790       -0.66980        2.15590
C         -1.66700       -0.73120        1.27850
N         -3.02320       -0.45880        1.13790
C         -2.73670        0.12470       -0.22520
C         -1.34520       -0.58750       -0.17800
H         -0.30440        1.68660        0.95850
H          0.72780       -0.16780       -0.86270
H          0.91830       -1.61220        1.16010
H          1.25390       -0.00670        1.82610
H         -3.51890        0.06350        1.85180
H         -3.43690       -0.20550       -0.99440
H         -2.65320        1.21520       -0.21990
H         -1.31580       -1.51280       -0.75690
