13
gdb 21572	7.47029	1.25695	1.07808	6.6006	64.07	-0.2252	-0.0415	0.1837	1011.3657	0.09711	-394.804521	-394.797317	-394.796373	-394.836038	25.932
N          0.10560        1.40140        0.12620
C         -0.04480        0.01840        0.03660
C         -1.14870       -0.80870        0.01760
C         -0.61220       -2.12380        0.00490
C         -1.39120       -3.37220       -0.02360
O         -0.93820       -4.49040       -0.06030
N          0.72310       -2.11740        0.01030
N          1.03710       -0.81090        0.03950
H          0.73780        1.78940       -0.56410
H         -0.78210        1.88220        0.07380
H         -2.18580       -0.51460       -0.00040
H         -2.49160       -3.19590       -0.00750
H          2.00640       -0.54210        0.09660
