15
gdb 3369	4.57111	2.64766	2.5158	1.1028	56.14	-0.2459	0.0922	0.3381	624.8042	0.125739	-345.627428	-345.621103	-345.620159	-345.65761	23.289
C         -0.07010        1.57540        0.02160
C          0.03350        0.07090        0.08640
C          1.32740       -0.67280       -0.19160
O          2.51230        0.09400       -0.14930
C          2.87250        0.14630        1.21980
O          1.66720        0.12880        1.96380
C          0.77130       -0.65070        1.19970
H          0.84350        2.04920        0.38250
H         -0.24110        1.90770       -1.00730
H         -0.90270        1.93250        0.63630
H         -0.84810       -0.46740       -0.25790
H          1.37030       -1.54780       -0.83160
H          3.50060       -0.72180        1.48530
H          3.40370        1.08160        1.41690
H          0.35240       -1.50710        1.71730
