19
gdb 12366	2.96931	2.07841	1.53373	2.041	71.28	-0.2444	0.0249	0.2693	902.0435	0.166709	-365.084522	-365.076594	-365.07565	-365.116463	30.028
C         -0.09990        1.60480       -0.08390
C          0.01210        0.07540       -0.01070
C          0.74680       -0.49090       -1.22660
O          2.13580       -0.11980       -1.22550
C          2.72580       -0.08390       -0.00620
N          2.21310       -0.23350        1.13880
C          0.76260       -0.44710        1.23780
C          0.26960        0.13500        2.56340
H          0.88150        2.08540       -0.03590
H         -0.57430        1.90880       -1.02290
H         -0.70550        1.99880        0.73580
H         -0.99990       -0.34930       -0.01410
H          0.68510       -1.58650       -1.24260
H          0.34250       -0.10890       -2.16770
H          3.79040        0.11500       -0.12060
H          0.60190       -1.53440        1.28240
H          0.47210        1.20770        2.62570
H         -0.80700       -0.02440        2.68750
H          0.79260       -0.34740        3.39310
