17
gdb 20136	4.47611	1.70478	1.54962	1.4766	67.61	-0.2225	0.078	0.3005	866.5189	0.142601	-363.780094	-363.773194	-363.77225	-363.811392	26.607
C          1.19030       -0.92490       -0.41040
C         -0.01130       -0.23960       -0.96350
N          0.53480        0.14270        0.33850
C         -0.17640       -0.22000        1.54210
C         -1.36980        0.69640        1.99020
C         -2.20450       -0.57500        2.17790
O         -2.31150       -1.20080        0.89650
C         -1.12710       -1.44410        1.67030
H          1.05970       -1.94970       -0.06620
H          2.18360       -0.69690       -0.78710
H          0.10590        0.50800       -1.74340
H         -0.94350       -0.79270       -0.98810
H          0.55980       -0.27820        2.35200
H         -1.16150        1.25220        2.90620
H         -1.75540        1.37260        1.22460
H         -2.98570       -0.78730        2.89780
H         -0.89540       -2.47900        1.89730
