13
gdb 10673	2.95986	2.03212	1.37868	2.3895	60.51	-0.2533	-0.0012	0.2521	869.5698	0.093399	-398.569287	-398.561405	-398.56046	-398.601493	28.939
N          0.27350        0.77670        0.91980
C         -0.04580        0.13200       -0.23360
O          0.62440        0.13000       -1.24260
C         -1.34550       -0.66750       -0.13510
C         -1.42170       -1.73570        0.89240
O         -2.09070       -0.49560        1.09040
C         -2.11280       -0.77730       -1.34640
C         -2.76430       -0.86070       -2.35130
H          1.07920        1.38000        0.91580
H         -0.42240        0.87090        1.64140
H         -2.06720       -2.59040        0.70400
H         -0.55650       -1.91210        1.52840
H         -3.33290       -0.93170       -3.24570
