14
gdb 19118	3.56043	3.53728	3.53675	0.	61.41	-0.1994	0.0241	0.2235	545.8545	0.110756	-341.426123	-341.421836	-341.420892	-341.4542	18.796
C         -0.02710        1.53670        0.04140
C         -0.07480        1.52210       -1.50570
C          1.47240        1.56500       -1.51080
C          1.47230        0.01750       -1.53960
C          1.52000        0.03210        0.00740
C         -0.02710       -0.01080        0.01260
N         -0.06350       -0.01380       -1.52300
N          1.50870        1.56800        0.02480
H         -0.56320        2.19610        0.72400
H         -0.76380        2.05430       -2.16160
H          2.12370        2.24710       -2.05750
H          2.00850       -0.64190       -2.22230
H          2.20900       -0.50010        0.66340
H         -0.67840       -0.69290        0.55930
