16
gdb 19961	4.06433	1.48403	1.15598	4.0391	64.7	-0.2652	0.01	0.2752	1012.5895	0.131075	-383.750419	-383.743106	-383.742161	-383.782767	26.622
O          0.35020        0.11640        0.21010
C          0.13350        1.25830       -0.03380
O         -1.03170        1.80930       -0.51060
C         -0.47410        3.16200       -0.47090
C          0.87590        2.60550        0.03130
C          1.39480        3.03850        1.37520
C          2.80940        2.70780        1.77820
C          2.43060        4.13440        1.47560
H         -0.48400        3.61450       -1.46430
H         -1.02150        3.78400        0.24090
H          1.66800        2.65430       -0.72250
H          0.65320        3.00660        2.16930
H          2.99110        2.42700        2.80900
H          3.42850        2.18060        1.06070
H          2.79630        4.57360        0.55320
H          2.35250        4.83500        2.29910
