17
gdb 3174	5.34611	2.31281	1.9528	1.4498	64.06	-0.2241	0.0877	0.3118	717.7541	0.149675	-309.711101	-309.704582	-309.703638	-309.742434	24.899
C          0.04530        1.53370       -0.01170
C          1.28860        0.65750       -0.07220
C         -0.07930        0.04570        0.05160
C         -0.52670       -0.73760        1.29060
C         -1.50800       -1.77450        0.70790
C         -1.00650       -1.89710       -0.73470
O         -0.62610       -0.57650       -1.09620
H         -0.14300        2.10910        0.88890
H         -0.26890        2.01250       -0.93260
H          1.78260        0.56770       -1.03320
H          1.95010        0.63480        0.78850
H          0.32800       -1.23470        1.76100
H         -0.99130       -0.09640        2.04390
H         -1.50440       -2.72430        1.24810
H         -2.52940       -1.38210        0.71050
H         -0.14630       -2.58440       -0.79300
H         -1.76550       -2.23350       -1.44580
