14
gdb 21302	3.33322	2.00001	1.26189	2.8182	60.35	-0.21	0.0097	0.2198	910.981	0.107651	-415.834928	-415.827312	-415.826368	-415.866907	27.311
C          0.01450        1.34590        0.00630
O         -0.00840       -0.08360        0.03530
C         -1.22450       -0.64330        0.03170
N         -2.35010        0.02690        0.00230
O         -3.34610       -0.94340       -0.00140
C         -2.76820       -2.16970        0.03000
C         -1.41500       -2.06130        0.05060
N         -0.39540       -3.01180        0.15060
H          1.06740        1.62890        0.01260
H         -0.47740        1.72140       -0.89630
H         -0.49660        1.75640        0.88240
H         -3.44430       -3.00940        0.03240
H         -0.60280       -3.88080       -0.32290
H          0.48920       -2.64410       -0.17540
