20
gdb 8007	2.90193	1.83922	1.53213	2.539	70.99	-0.2372	0.0657	0.3029	951.5092	0.17648	-386.155584	-386.146924	-386.14598	-386.188475	32.649
C          0.46840        1.46900        0.10890
C         -0.00370        0.02030        0.03320
C          0.48370       -0.74090       -1.22360
C          1.68060       -1.55140       -0.70590
O          2.87440       -0.78020       -0.64440
C          1.22420       -1.86410        0.72580
C          2.32110       -2.18760        1.72580
O          0.52590       -0.69720        1.15540
H          1.55590        1.51160        0.00620
H          0.00940        2.06890       -0.68460
H          0.19200        1.90570        1.07280
H         -1.10090       -0.00800        0.09130
H         -0.29020       -1.42090       -1.59400
H          0.75670       -0.07130       -2.04460
H          1.84450       -2.47330       -1.28150
H          3.09480       -0.50490       -1.53920
H          0.52080       -2.71360        0.66520
H          3.05520       -1.38110        1.75560
H          1.88910       -2.31370        2.72210
H          2.82930       -3.11690        1.44970
