21
gdb 13634	2.91213	1.57459	1.21913	1.9815	75.7	-0.2146	0.0764	0.291	1094.1553	0.186667	-366.21808	-366.208449	-366.207505	-366.252518	34.577
C         -0.49650        1.52180        0.12880
O         -0.50510        0.15880        0.49070
C         -1.44010       -0.64090       -0.22470
C         -0.92900       -0.97580       -1.63210
C         -1.71300       -1.92590        0.54810
C         -0.87090       -2.35240        1.70220
N         -2.26960       -1.98530        1.89820
C         -2.56640       -0.75390        2.62060
H          0.20200        2.02650        0.80070
H         -0.16040        1.68230       -0.90530
H         -1.49170        1.97860        0.24350
H         -2.38590       -0.07780       -0.31640
H         -1.67150       -1.56170       -2.18260
H         -0.72870       -0.06970       -2.21000
H         -0.00430       -1.55720       -1.56800
H         -2.11960       -2.70140       -0.10040
H         -0.62770       -3.40190        1.85070
H         -0.10900       -1.64820        2.02650
H         -1.82150        0.03960        2.48410
H         -3.54390       -0.37760        2.29900
H         -2.63750       -0.98890        3.68760
