18
gdb 9542	3.36985	1.58913	1.39569	3.3277	63.68	-0.2488	0.0588	0.3076	955.2006	0.151929	-422.051701	-422.042859	-422.041915	-422.085057	32.271
C         -0.28660        1.62880        0.21000
C         -0.08540        0.12730        0.13710
C         -1.36370       -0.62800       -0.23590
O         -1.73750       -0.33990       -1.56720
O          0.93520       -0.22850       -0.85450
C          1.76120       -0.86060        0.14520
C          0.75150       -0.52860        1.26620
O          1.16710        0.38860        2.24890
H          0.66470        2.14140        0.35920
H         -0.74600        1.97340       -0.72000
H         -0.94890        1.88440        1.04280
H         -1.20260       -1.70960       -0.09310
H         -2.19480       -0.32460        0.41040
H         -0.94100       -0.49090       -2.09320
H          1.92670       -1.92420       -0.06560
H          2.72610       -0.35270        0.26200
H          0.26980       -1.40570        1.71790
H          1.65920       -0.08870        2.92380
