18
gdb 9375	3.42467	1.13099	0.88833	2.276	71.07	-0.2602	0.0311	0.2914	1290.2422	0.150637	-384.889731	-384.880181	-384.879237	-384.924827	33.85
C          0.10330        1.44540        0.14970
C         -0.05790       -0.07530        0.00380
O         -1.42750       -0.47050        0.01680
C         -2.04090       -0.49650        1.29720
C         -3.32780       -1.29240        1.13320
O         -3.06710       -2.60080        0.67170
C          0.52990       -0.55540       -1.24690
C          1.03440       -0.92880       -2.27090
H          1.16080        1.71890        0.10390
H         -0.42730        1.95450       -0.65850
H         -0.29800        1.78480        1.10850
H          0.46130       -0.56910        0.84240
H         -1.38100       -0.99730        2.02290
H         -2.25820        0.51740        1.66570
H         -3.83190       -1.37980        2.10140
H         -3.99970       -0.74780        0.45050
H         -2.48120       -2.49450       -0.08780
H          1.47650       -1.26790       -3.17510
