14
gdb 5651	5.11034	2.13446	1.51967	1.0087	70.55	-0.1924	-0.0131	0.1794	781.2602	0.109825	-345.434932	-345.429249	-345.428305	-345.464462	22.957
C         -0.05480        1.53330        0.01090
C          1.43380        1.86940       -0.00180
C          2.19020        0.74950       -0.01500
C          1.26760       -0.36640       -0.01200
C         -0.03710        0.03200        0.00280
C         -0.81050       -1.16680        0.00390
C          0.10060       -2.18610       -0.01030
O          1.39040       -1.70980       -0.02030
H         -0.54750        1.95720        0.89570
H         -0.56450        1.96650       -0.85960
H          1.80400        2.88590        0.00000
H          3.26980        0.69060       -0.02590
H         -1.88320       -1.28590        0.01370
H          0.00780       -3.25940       -0.01500
