14
gdb 8830	3.07155	1.59762	1.14191	3.9089	58.68	-0.2748	-0.0161	0.2587	1015.281	0.105895	-415.887385	-415.878323	-415.877379	-415.922966	29.672
C          0.10340        1.33760        0.15030
O          0.22130       -0.08980        0.01200
C          0.58250       -0.52910       -1.19510
O          0.78390        0.15770       -2.16070
C          0.67110       -2.07800       -1.21900
N          1.02160       -2.63750       -2.51300
C          1.61270       -2.53840       -0.18850
N          2.36970       -2.88600        0.61120
H          1.05900        1.81910       -0.06840
H         -0.65700        1.72350       -0.53250
H         -0.18540        1.50890        1.18630
H         -0.32260       -2.44650       -0.93180
H          0.35410       -2.29690       -3.19950
H          1.92280       -2.26730       -2.80320
