16
gdb 18396	3.09378	2.46647	1.57668	2.6834	66.47	-0.246	-0.006	0.2399	813.074	0.131938	-383.710094	-383.703452	-383.702508	-383.741086	25.463
C          0.21420        1.30480       -0.42290
O          0.54490        2.25240        0.56780
C          1.73290        2.01450        1.27600
C          1.61790        0.99040        2.38760
O          0.41600        0.98440        3.14210
C          0.73830       -0.19010        2.35910
C         -0.13900       -0.60850        1.23670
C         -0.34900       -0.00200        0.06810
H         -0.53630        1.79290       -1.05540
H          1.08790        1.10720       -1.07200
H          2.55490        1.71770        0.60120
H          2.00920        2.97550        1.72640
H          2.53330        0.91540        2.98390
H          1.04340       -1.02680        2.98970
H         -0.64400       -1.55690        1.40580
H         -1.00770       -0.49340       -0.64650
