15
gdb 10049	3.54236	1.25476	0.98757	3.0625	66.88	-0.2764	0.0197	0.2961	1138.2625	0.116893	-362.636388	-362.627519	-362.626575	-362.670267	31.041
O          0.12550        1.40330        0.00820
C          0.05410        0.00040       -0.03510
C         -1.40360       -0.52450       -0.01200
C         -1.44940       -2.07180       -0.10770
C         -2.80020       -2.60100       -0.22530
C         -3.92350       -3.01370       -0.32700
C         -2.06200       -0.03400        1.20130
N         -2.51460        0.39190        2.17620
H         -0.19960        1.69680        0.86750
H          0.51350       -0.30560       -0.98020
H          0.61940       -0.47160        0.78310
H         -1.93110       -0.09760       -0.87180
H         -0.85560       -2.36910       -0.98090
H         -0.95220       -2.50190        0.77000
H         -4.91500       -3.38550       -0.40840
