18
gdb 5882	4.06219	0.88228	0.85538	2.1313	73.33	-0.256	0.0333	0.2893	1421.7084	0.149982	-384.904806	-384.894656	-384.893712	-384.940548	35.762
C          0.04250        1.52780        0.05170
C         -0.00790       -0.01090       -0.01200
C          0.69570       -0.63730        1.20740
O         -1.37160       -0.45330       -0.06940
C          0.63130       -0.47610       -1.24810
C          1.20100       -0.83010       -2.24840
C          1.85080       -1.32740       -3.46030
O          2.37900       -2.63980       -3.32510
H          1.07420        1.88990        0.04640
H         -0.48650        1.95480       -0.80300
H         -0.43810        1.87690        0.97330
H          0.21950       -0.28850        2.13130
H          0.62050       -1.72590        1.16360
H          1.75210       -0.35770        1.24060
H         -1.79720       -0.15750        0.74340
H          1.14130       -1.26520       -4.30100
H          2.70280       -0.68920       -3.72010
H          1.67260       -3.19810       -2.98370
