20
gdb 8158	3.69246	1.72023	1.54742	1.8372	74.02	-0.2503	0.0884	0.3387	940.049	0.177341	-349.017463	-349.009562	-349.008618	-349.049082	30.984
C          0.70350        1.42980        0.10170
C         -0.11100        0.14500       -0.09430
C          0.40990       -0.71300       -1.28640
C          1.26480       -1.78750       -0.65050
O          2.22320       -1.27900        0.29310
C          0.99980       -1.85740        0.79400
C          1.15340       -3.09030        1.64170
C         -0.03770       -0.80040        1.14030
H          1.75390        1.19430        0.28910
H          0.64660        2.06860       -0.78660
H          0.32270        2.00810        0.95080
H         -1.15240        0.42880       -0.27650
H         -0.41570       -1.19270       -1.82660
H          0.96660       -0.11170       -2.01310
H          1.59830       -2.64830       -1.22700
H          1.91780       -3.75130        1.22560
H          1.45340       -2.82470        2.66150
H          0.20850       -3.64080        1.70460
H          0.21910       -0.25890        2.05760
H         -0.99920       -1.29780        1.31780
