18
gdb 17385	4.75209	1.60968	1.50743	2.0315	70.8	-0.2422	0.0736	0.3159	895.1823	0.154756	-347.747579	-347.740627	-347.739682	-347.779074	26.838
C         -0.01330        1.44580        0.12770
C          1.30040        0.76510       -0.12570
C          1.81600        0.12990        1.17160
C          0.50160       -0.70480        1.26810
C          0.56710       -2.24180        1.37510
O         -0.30830       -2.24960        2.51940
C         -0.37770       -0.80840        2.53100
C          0.01050       -0.05210       -0.02380
H         -0.22200        1.90140        1.09390
H         -0.43160        1.98690       -0.71500
H          1.89970        0.98350       -1.00060
H          2.68830       -0.51300        1.02500
H          2.02480        0.81960        1.99750
H          0.14450       -2.79900        0.52830
H          1.55890       -2.65180        1.61140
H          0.05990       -0.38620        3.44590
H         -1.40700       -0.44230        2.42410
H         -0.55050       -0.55900       -0.80100
