17
gdb 10314	2.49486	1.76967	1.10054	3.867	65.5	-0.2852	0.0196	0.3048	1073.5884	0.139124	-400.996669	-400.986974	-400.98603	-401.031281	33.23
C          0.18860        1.38900        0.09580
O         -0.13380        0.02840       -0.14050
C          0.56190       -0.55340       -1.21390
C          2.00860       -0.66880       -0.91610
N          3.12920       -0.71810       -0.63980
C         -0.05000       -1.93930       -1.49300
C         -1.54650       -1.84600       -1.77360
O          0.67610       -2.43060       -2.60900
H          1.24270        1.51140        0.37630
H         -0.01830        2.00690       -0.79010
H         -0.44420        1.72080        0.92070
H          0.46110        0.05220       -2.12990
H          0.12450       -2.56100       -0.60280
H         -1.95340       -2.84410       -1.96670
H         -2.07540       -1.41530       -0.92090
H         -1.72900       -1.22660       -2.65760
H          0.47710       -3.36540       -2.71410
