15
gdb 9110	3.60521	1.34023	1.01346	4.0287	70.89	-0.246	-0.0657	0.1803	1124.5421	0.11796	-395.989785	-395.981278	-395.980334	-396.023561	29.284
C         -0.86980        0.86050       -1.05900
N         -0.42590       -0.39340       -0.48990
C          0.81640       -0.57150       -0.32340
N          1.34990       -1.75440        0.15460
C          0.60920       -2.86020        0.56680
N          1.07800       -3.62930        1.46530
C         -0.67200       -3.17810       -0.18910
O         -1.48230       -3.93870        0.27510
H         -0.04960        1.56990       -1.25380
H         -1.39550        0.67660       -2.00320
H         -1.58810        1.33630       -0.38230
H          1.58540        0.17960       -0.54830
H          2.27610       -1.71250        0.55690
H          0.42550       -4.40590        1.59630
H         -0.77350       -2.73740       -1.19310
