17
gdb 13963	5.07348	1.24496	1.13546	2.9027	69.09	-0.2418	-0.0218	0.22	1061.0675	0.141956	-363.830246	-363.822588	-363.821644	-363.863171	27.925
O         -0.37490        0.15490        0.21170
C         -0.00930        1.30130        0.17240
C          1.39940        1.75110       -0.16720
C          1.40150        2.75310       -1.29190
C          1.22090        2.44270       -2.79050
C          2.18760        3.62900       -3.12080
C          2.32380        3.89820       -1.61600
N          1.02130        4.13460       -1.00000
H         -0.70940        2.13980        0.38790
H          1.81390        2.23580        0.72630
H          2.00280        0.87080       -0.40700
H          1.63950        1.47650       -3.08220
H          0.19500        2.50460       -3.16870
H          3.11520        3.28890       -3.58680
H          1.78260        4.45680       -3.71230
H          3.20360        4.25880       -1.09450
H          0.33870        4.51010       -1.65670
