15
gdb 4146	5.03707	1.56438	1.45293	1.6867	64.31	-0.2465	0.0091	0.2555	870.8229	0.119793	-399.729389	-399.722913	-399.721969	-399.759952	25.514
O         -0.15290        1.30090        0.03130
N         -0.00000       -0.09880        0.01480
C         -1.12490       -0.67930        0.01770
C         -2.56080       -0.17090        0.02640
C         -3.20890       -1.57750        0.02250
C         -2.41890       -2.36560        1.09220
C         -1.34230       -2.17570       -0.00810
O         -2.41980       -2.26650       -1.00350
H          0.76090        1.60530        0.00970
H         -2.79440        0.44100        0.90240
H         -2.80190        0.39860       -0.87460
H         -4.28620       -1.65930       -0.11320
H         -2.25790       -1.92360        2.07880
H         -2.74330       -3.40440        1.15810
H         -0.49520       -2.83720       -0.17200
