15
gdb 15927	3.58923	1.92515	1.54333	3.9527	65.58	-0.2446	0.0054	0.2499	834.3284	0.120977	-358.796107	-358.789221	-358.788277	-358.827306	25.919
N         -0.11370       -1.15960       -0.26380
C         -0.05790       -0.01680       -0.09530
C          0.03000        1.42290        0.07590
C         -0.42190        2.29480       -1.13550
N          0.78980        3.15020       -1.00460
C          1.35130        2.27950        0.05220
C          0.96190        2.77670        1.46130
N         -0.25130        1.90980        1.43650
H         -0.47330        1.72070       -2.06680
H         -1.36820        2.82980       -0.99670
H          1.35020        3.16200       -1.84780
H          2.34670        1.86880       -0.11550
H          1.64160        2.49710        2.27330
H          0.78000        3.85500        1.48620
H         -1.14540        2.37380        1.55310
