20
gdb 13775	3.33287	1.29299	1.03723	3.2868	76.83	-0.2444	-0.0165	0.2278	1183.6717	0.175114	-349.012949	-349.003801	-349.002857	-349.046894	33.391
C          0.20320        1.48450        0.15260
C         -0.15160       -0.00180       -0.00720
C         -1.67020       -0.20530       -0.09960
C          0.55560       -0.57290       -1.22720
C          1.94920       -1.09620       -1.16990
C          0.80370       -2.07000       -1.43790
C          0.46200       -3.06480       -0.39920
O          0.01550       -4.16330       -0.62760
H          1.28420        1.62830        0.24580
H         -0.13720        2.06250       -0.71470
H         -0.27450        1.90810        1.04170
H          0.21100       -0.52680        0.88550
H         -2.07810        0.30290       -0.98130
H         -1.92930       -1.26570       -0.17770
H         -2.17510        0.20320        0.78160
H          0.28380       -0.06600       -2.15160
H          2.63670       -0.90370       -1.98540
H          2.42100       -1.16400       -0.19340
H          0.68470       -2.44620       -2.44820
H          0.66270       -2.73920        0.64770
