16
gdb 8814	2.95439	1.52344	1.04436	2.601	66.87	-0.2607	-0.0318	0.2289	1092.2019	0.126759	-383.721045	-383.711874	-383.71093	-383.755643	32.451
C         -0.30240        1.60290        1.18660
C         -0.24330        0.40010        0.22490
C          0.64440       -0.65560        0.70410
C          1.38650       -1.50480        1.11980
C         -1.65430       -0.10670       -0.12620
O         -2.60590        0.64240       -0.12770
C         -1.84520       -1.55790       -0.53070
O         -3.15290       -1.79920       -0.95510
H          0.69180        2.03870        1.30450
H         -0.98750        2.35490        0.79270
H         -0.66070        1.28850        2.17000
H          0.15040        0.75570       -0.74160
H          2.03980       -2.26050        1.48100
H         -1.11430       -1.80280       -1.31830
H         -1.57160       -2.18350        0.33430
H         -3.62610       -0.96380       -0.81610
