15
gdb 11498	4.12968	1.20005	1.00474	2.4139	66.07	-0.2475	-0.076	0.1714	1141.1622	0.117831	-399.817521	-399.809433	-399.808489	-399.851901	28.238
O         -0.73370        1.44190       -0.37970
C          0.29040        0.98100        0.05670
C          1.56890        1.79660        0.25990
O          2.57360        1.26950        0.70690
N          1.42230        3.08840       -0.10460
C          2.47120        4.05510       -0.01140
C          2.60340        5.13600       -1.05110
C          2.15970        5.48190        0.35420
H          0.40760       -0.07920        0.35490
H          0.51010        3.34690       -0.45650
H          3.37030        3.60040        0.38450
H          3.60030        5.41620       -1.37210
H          1.85510        5.17210       -1.83600
H          1.11760        5.74710        0.49970
H          2.84800        6.00270        1.01020
