18
gdb 12738	2.61453	2.20751	1.7958	2.2645	67.2	-0.2375	0.0634	0.3009	850.0975	0.152898	-384.910073	-384.902304	-384.90136	-384.941878	29.962
C         -0.59680        1.41250       -0.00520
C          0.03020        0.03540       -0.03510
O          1.18150       -0.05670       -0.91860
C          1.99270       -0.68350        0.09230
C          2.85510        0.34170        0.86570
C          1.72540        0.49130        1.93450
C          0.84570       -0.51810        1.15180
O          0.15920       -1.51180        1.84460
H          0.12840        2.18160        0.27520
H         -0.98920        1.66570       -0.99500
H         -1.42970        1.43480        0.70580
H         -0.71980       -0.71550       -0.32080
H          2.43780       -1.62500       -0.23950
H          3.78550       -0.06680        1.26870
H          3.08110        1.23480        0.28080
H          2.01790        0.09080        2.91120
H          1.30950        1.48870        2.09670
H          0.69600       -1.79840        2.59060
