13
gdb 529	15.60527	1.49376	1.39916	4.5806	51.68	-0.2825	0.0109	0.2934	824.9588	0.106754	-286.492223	-286.485166	-286.484222	-286.52342	23.105
C         -0.07210        1.50270        0.01090
C         -0.02470       -0.01390        0.00230
O         -1.35950       -0.50100        0.01240
C         -1.41680       -1.90270        0.00540
C         -2.81900       -2.33170        0.01650
N         -3.91250       -2.70160        0.02500
H          0.94260        1.91120        0.00350
H         -0.60410        1.87490       -0.86860
H         -0.58730        1.86540        0.90440
H          0.50240       -0.38510       -0.89210
H          0.51920       -0.39470        0.88260
H         -0.92860       -2.32730       -0.88800
H         -0.91170       -2.33680        0.88470
