14
gdb 4999	3.30999	2.3834	1.39746	3.2488	68.25	-0.2252	-0.0514	0.1738	836.2197	0.109099	-378.78996	-378.783172	-378.782227	-378.820896	25.46
C         -0.03130        1.49870       -0.00490
C         -0.00900        0.00160       -0.03640
N         -0.04200       -0.63460       -1.17120
C         -0.02070       -2.00590       -1.18050
C          0.03400       -2.72860       -0.03450
N          0.06880       -2.06660        1.15960
C          0.05130       -0.67730        1.27580
O          0.08390       -0.12370        2.36160
H          0.85830        1.88460        0.50510
H         -0.07750        1.89160       -1.02090
H         -0.88930        1.85720        0.57430
H         -0.04970       -2.49140       -2.14760
H          0.05250       -3.81070        0.00060
H          0.10990       -2.57140        2.03470
