17
gdb 15148	3.85627	1.16782	1.00698	5.2009	66.6	-0.2509	0.0181	0.269	1171.3142	0.141283	-400.98295	-400.974679	-400.973735	-401.016784	28.9
O          0.39990        0.29760       -0.66870
C          0.55710        1.48090       -0.66340
O          0.72020        2.18370        0.47720
C          1.01410        3.57680        0.35920
C          2.51800        3.81940        0.30460
N          3.06710        3.31440       -0.94450
C          3.22680        4.27510       -2.03390
C          4.41050        3.75100       -1.29730
H          0.56100        2.11940       -1.56520
H          0.52530        3.99530       -0.53050
H          0.58200        4.05210        1.24330
H          2.71080        4.89790        0.45230
H          2.99010        3.28080        1.13380
H          2.98920        3.90940       -3.02850
H          2.94460        5.31070       -1.84770
H          4.91690        4.43800       -0.62100
H          5.05090        2.99640       -1.74420
