18
gdb 13147	4.0028	1.20541	1.01001	2.8324	65.15	-0.2441	0.0573	0.3014	1184.2658	0.151801	-422.031971	-422.022925	-422.02198	-422.066753	31.01
C         -0.18100        1.31820       -0.07760
O          0.07420       -0.06240        0.00140
C          0.60780       -0.58820       -1.19300
C          0.78280       -2.08260       -1.00690
O         -0.45280       -2.83030       -1.11350
C          0.00020       -3.51940       -2.29490
C          1.39370       -2.85830       -2.19560
O          1.80200       -2.02410       -3.25460
H          0.73570        1.89320       -0.28710
H         -0.91780        1.55440       -0.86180
H         -0.58190        1.63310        0.88910
H         -0.05740       -0.39040       -2.04710
H          1.58600       -0.13400       -1.42420
H          1.26140       -2.26130       -0.03640
H         -0.04280       -4.60940       -2.17970
H         -0.55580       -3.22200       -3.19390
H          2.19260       -3.54960       -1.90130
H          2.17270       -2.57190       -3.95300
