17
gdb 17435	2.73663	2.5846	1.85826	2.3406	66.69	-0.2276	0.0605	0.2881	789.1946	0.141547	-363.791494	-363.78396	-363.783016	-363.823989	28.395
C          0.02960        1.61210       -0.00960
C          0.09870        0.09040        0.02650
C          0.75900       -0.71370       -1.09380
C          1.22880       -1.76500       -0.16530
N          2.23730       -0.88710       -0.81920
C          2.48200       -0.19610        0.49110
C          1.09480       -0.67040        0.96400
O          0.79020       -0.94200        2.28720
H          0.99290        2.06770       -0.25270
H         -0.68930        1.94460       -0.76610
H         -0.30480        2.01910        0.95270
H         -0.89750       -0.33150        0.20430
H          0.46180       -0.79740       -2.13150
H          1.23470       -2.84610       -0.18690
H          3.29000       -0.72030        1.00760
H          2.70680        0.87490        0.43490
H          0.45170       -0.14010        2.70010
