16
gdb 9711	3.29914	1.7976	1.63025	1.5736	72.19	-0.2449	0.0065	0.2514	876.2298	0.128607	-346.570768	-346.562881	-346.561937	-346.602804	29.693
C          0.03580        1.49260       -0.06580
C         -0.04740       -0.03870        0.02010
O          0.65800       -0.59440       -1.10480
C          1.58280       -1.58900       -0.67340
C          1.59380       -1.48900        0.82550
C          0.67620       -0.61900        1.22340
C         -1.45540       -0.47580        0.00320
C         -2.60580       -0.82460        0.00410
H          1.08350        1.80200       -0.03140
H         -0.40750        1.83460       -1.00410
H         -0.50550        1.95540        0.76430
H          1.26680       -2.58820       -1.01490
H          2.56350       -1.38450       -1.12600
H          2.25460       -2.07100        1.45530
H          0.41680       -0.34240        2.23640
H         -3.62000       -1.13950       -0.00390
