20
gdb 8911	3.41318	1.24009	0.97325	4.7661	75.47	-0.2597	0.0251	0.2849	1227.492	0.176332	-345.19945	-345.189645	-345.188701	-345.233997	35.332
C          0.05640        1.58810       -0.01290
C         -0.01940        0.05770        0.01730
C         -1.45030       -0.50990       -0.00290
C         -2.20810       -0.12670       -1.28150
C         -1.41970       -2.06150        0.17820
N         -0.74720       -2.58920        1.36760
C         -2.79310       -2.59880        0.16860
N         -3.87990       -2.99110        0.17330
H          1.09290        1.92410        0.08710
H         -0.33350        2.00100       -0.94720
H         -0.51600        2.02800        0.81150
H          0.54060       -0.35450       -0.83440
H          0.49250       -0.29190        0.92120
H         -1.99440       -0.10200        0.86170
H         -2.30320        0.95780       -1.37340
H         -1.68100       -0.49100       -2.17190
H         -3.21610       -0.54880       -1.29070
H         -0.90770       -2.49020       -0.69460
H          0.24330       -2.37760        1.33030
H         -1.12050       -2.15450        2.20650
