11
gdb 8997	7.30964	1.00091	0.9153	2.7614	54.42	-0.301	-0.1128	0.1882	1137.2067	0.069429	-434.561192	-434.553231	-434.552287	-434.59475	25.746
O          0.18650        0.10460       -0.09270
C          0.32000        1.27800       -0.22460
O          0.63750        2.08890        0.82250
C          0.83190        3.45330        0.54290
C          2.17470        3.71120       -0.13300
O          2.87540        2.85090       -0.59190
C          2.53820        5.13870       -0.21080
N          2.78790        6.26660       -0.25900
H          0.18190        1.83260       -1.17130
H          0.04290        3.87170       -0.10150
H          0.78890        3.99250        1.49390
