14
gdb 21269	3.45138	1.91305	1.24209	3.8111	60.17	-0.2192	0.0109	0.2301	920.4634	0.107607	-415.833484	-415.826002	-415.825058	-415.865298	27.301
C          0.04750        1.35880        0.01400
O          0.01850       -0.05870        0.03980
C         -1.21900       -0.60270        0.03820
C         -2.46940       -0.07430        0.01440
O         -3.38350       -1.06670        0.01190
N         -2.72220       -2.30050        0.02660
C         -1.44040       -2.01730        0.05060
N         -0.45400       -2.97860        0.14070
H          1.09750        1.65350        0.01510
H         -0.44210        1.74540       -0.88990
H         -0.45180        1.77690        0.89820
H         -2.85480        0.93150        0.00020
H         -0.75720       -3.89930       -0.14470
H          0.41960       -2.70510       -0.28580
