17
gdb 17492	3.40962	2.44899	1.91084	2.4931	66.15	-0.2196	0.0665	0.2862	752.2823	0.144016	-363.822086	-363.815619	-363.814675	-363.852168	26.501
O         -0.04680        1.38010        0.07710
C          0.02290       -0.01570        0.02130
C          0.26330       -0.70540       -1.34970
N         -0.93360       -1.59720       -1.15940
C         -0.87880       -2.14640        0.23150
C          0.45430       -2.19340        0.97470
C          0.86210       -0.70340        1.10650
C         -1.33670       -0.76040        0.02440
H          0.85010        1.72900        0.11120
H          0.05560       -0.03050       -2.18310
H          1.21480       -1.22430       -1.51950
H         -1.59160       -2.95300        0.36640
H          0.33020       -2.67050        1.95090
H          1.19820       -2.78160        0.42650
H          1.93710       -0.54120        0.96170
H          0.58360       -0.30020        2.08630
H         -2.32730       -0.34240        0.15680
