16
gdb 13063	4.26012	1.11733	0.94065	2.525	75.46	-0.2302	-0.0208	0.2094	1245.2217	0.128393	-346.590582	-346.581898	-346.580953	-346.625948	29.787
C          0.17750        1.56860       -0.29990
C          0.11570        0.12670       -0.11230
C          0.06750       -1.06780        0.03610
C         -0.03490       -2.49450        0.23170
C          0.03260       -3.10760        1.67690
C         -1.17960       -4.02980        1.36010
C         -1.42970       -3.18620        0.10060
O         -2.35590       -3.03540       -0.63460
H          0.95860        1.84500       -1.01660
H         -0.77360        1.95930       -0.67820
H          0.39510        2.08320        0.64260
H          0.65790       -3.03250       -0.43030
H          0.96960       -3.60160        1.93350
H         -0.20100       -2.35910        2.43510
H         -0.89660       -5.05630        1.10460
H         -2.00280       -4.06570        2.07710
