18
gdb 16466	3.07338	2.87272	1.84397	1.2787	71.18	-0.2328	0.1019	0.3346	772.592	0.155516	-347.767856	-347.76148	-347.760536	-347.797848	26.416
C          0.03370        1.51180       -0.10630
C          0.02070        0.01410        0.03530
O          0.41730       -0.59620       -1.18910
C          0.35390       -1.99730       -0.89320
C         -0.10120       -1.95790        0.55580
C          0.65420       -0.76590        1.23700
C         -0.60990       -0.48230        2.07970
C         -1.15510       -0.80380        0.66980
H          1.03730        1.85770       -0.37180
H         -0.64970        1.82210       -0.90250
H         -0.26840        2.00360        0.82120
H         -0.36040       -2.49440       -1.56210
H          1.34060       -2.45870       -1.02880
H         -0.25260       -2.88960        1.10110
H          1.69860       -0.75220        1.55400
H         -0.83840       -1.21480        2.85780
H         -0.74920        0.53420        2.45610
H         -2.19320       -0.83380        0.33390
