17
gdb 17123	6.66362	1.11517	1.02046	3.9604	69.81	-0.2444	0.04	0.2844	1138.4756	0.142712	-363.873466	-363.865847	-363.864903	-363.905992	28.39
O         -0.05190       -0.06710        0.10310
C         -0.05370        1.13270        0.04390
C         -1.12020        2.25550        0.07910
C          0.07750        3.24980       -0.04270
N          0.94960        2.06410       -0.07780
C          0.13240        4.13130       -1.26000
C         -0.37870        5.54800       -1.18140
C          1.10010        5.28970       -1.31270
H         -1.80320        2.25260       -0.77250
H         -1.69040        2.30720        1.00800
H          0.22740        3.85390        0.86170
H          1.95240        1.96450       -0.13930
H         -0.03840        3.60220       -2.19420
H         -0.91330        5.94670       -2.03580
H         -0.74810        5.90090       -0.22390
H          1.72340        5.47080       -0.44260
H          1.58260        5.51210       -2.25770
