10
gdb 283	5.64251	3.73654	2.24793	0.0024	39.85	-0.2422	-0.0321	0.21	513.8164	0.073748	-338.559964	-338.553802	-338.552858	-338.589499	21.839
N         -0.04460        1.29020        0.00890
C          0.05730       -0.05130        0.00070
O          1.08650       -0.70420       -0.01260
C         -1.33720       -0.72160        0.01000
N         -1.23520       -2.06320        0.00280
O         -2.36630       -0.06870        0.02350
H          0.77950        1.86590        0.00450
H         -0.96950        1.69160        0.01990
H         -0.31030       -2.46460       -0.00760
H         -2.05930       -2.63880        0.00830
