19
gdb 1539	5.08349	1.28041	1.08099	0.7621	73.74	-0.2569	0.0586	0.3155	1124.1845	0.169345	-273.762417	-273.753418	-273.752474	-273.795788	32.351
C         -0.07800        1.60050        0.05290
C          0.01920        0.07320       -0.01240
C          0.77690       -0.51640        1.18230
C          0.81760       -2.06440        1.21620
C          1.59550       -2.67410        0.03180
C          1.37790       -2.52730        2.48580
C          1.85830       -2.89360        3.52560
H          0.91660        2.05980        0.06140
H         -0.62270        2.00240       -0.80710
H         -0.59880        1.92580        0.96020
H         -0.99090       -0.35700       -0.04860
H          0.50810       -0.21590       -0.95010
H          1.80700       -0.13730        1.19630
H          0.31070       -0.16640        2.11090
H         -0.22030       -2.42380        1.15870
H          2.62810       -2.31120        0.02380
H          1.62170       -3.76410        0.10880
H          1.12880       -2.41110       -0.92100
H          2.27190       -3.22350        4.44600
