16
gdb 20060	4.45204	1.6151	1.49269	1.1921	63.67	-0.2462	0.0232	0.2694	875.6831	0.133212	-379.900475	-379.893581	-379.892636	-379.932279	25.308
C          1.04220        0.95800        0.19610
N          0.46530        0.17910       -0.91530
C         -0.29040        0.32590        0.33540
C         -0.53230       -0.93600        1.15000
C          0.62590       -1.96260        1.13490
O          1.15550       -1.91090        2.48570
C          0.28650       -1.13590        3.17410
N         -0.68450       -0.57940        2.57990
H          1.91540        0.51000        0.66310
H          1.08580        2.04030        0.11310
H          0.09820        0.79780       -1.63240
H         -1.14260        1.00200        0.33950
H         -1.46280       -1.39270        0.79620
H          0.28090       -2.98310        0.94800
H          1.42000       -1.72040        0.42800
H          0.50800       -1.04930        4.23250
