15
gdb 12597	3.28536	2.19939	1.34163	3.9366	63.57	-0.2267	0.0069	0.2336	871.7356	0.120317	-396.041088	-396.03345	-396.032506	-396.072834	27.944
C         -0.06670        1.46880        0.01080
N          0.01010        0.02560        0.02880
C         -0.00290       -0.76500       -1.11880
O         -0.02790       -0.35430       -2.25450
C          0.00870       -2.19410       -0.57030
N          0.02930       -2.08350        0.88520
C          0.01550       -0.82650        1.13940
N         -0.06280       -0.27200        2.39570
H          0.84650        1.93120        0.40440
H         -0.18170        1.76430       -1.03440
H         -0.92570        1.82560        0.58780
H         -0.87490       -2.73650       -0.92850
H          0.88510       -2.73490       -0.94680
H          0.10390       -0.95390        3.12270
H          0.44270        0.59050        2.53640
