12
gdb 401	5.87456	3.17277	2.45596	4.9191	50.81	-0.2743	0.0226	0.2969	541.8201	0.096715	-265.399968	-265.393944	-265.393	-265.429201	21.524
C         -0.04380        1.50790        0.01400
C          0.00400       -0.00800       -0.03280
C          0.74510       -0.69740       -1.13300
N          1.27270       -0.71830        0.23410
C         -1.16690       -0.66100        0.52240
N         -2.12380       -1.14920        0.94890
H          0.84750        1.92620       -0.46360
H         -0.92500        1.88850       -0.51080
H         -0.08570        1.86420        1.04760
H          0.39440       -1.65590       -1.50160
H          1.21330       -0.05820       -1.87720
H          2.01610       -0.03190        0.34260
