13
gdb 4609	5.75098	1.62237	1.26843	5.3368	66.31	-0.2094	-0.0649	0.1444	889.6185	0.097233	-394.794273	-394.787421	-394.786476	-394.825588	25.446
N          0.04080        1.43100        0.12610
C         -0.01450        0.02830        0.02690
C         -1.14080       -0.71470        0.00410
O         -1.12500       -2.06180        0.01750
C          0.08120       -2.75610       -0.01880
N         -0.01390       -4.01750       -0.08050
N          1.26730       -2.02490        0.02390
C          1.20960       -0.73740        0.05250
H          0.68810        1.84570       -0.53450
H         -0.86470        1.87100        0.01850
H         -2.15130       -0.32150       -0.00070
H          0.92800       -4.40440       -0.08770
H          2.15640       -0.19550        0.10210
