12
gdb 279	5.28135	3.3693	2.10993	0.0005	47.03	-0.2408	-0.0826	0.1582	581.337	0.092927	-306.406578	-306.399338	-306.398393	-306.43831	23.569
C          0.21940        1.49860       -0.00100
C          0.25590       -0.00860        0.03560
O          0.30520       -0.66610        1.04910
C          0.22680       -0.72450       -1.33880
C          0.26310       -2.23170       -1.30230
O          0.17760       -0.06700       -2.35240
H          1.06580        1.87990       -0.58090
H         -0.68120        1.83900       -0.52190
H          0.24440        1.89290        1.01490
H         -0.58390       -2.61290       -0.72310
H          0.23880       -2.62610       -2.31820
H          1.16320       -2.57230       -0.78050
