10
gdb 330	5.6601	2.84529	2.01169	2.5088	48.67	-0.2798	-0.003	0.2768	583.2106	0.072434	-264.171923	-264.165508	-264.164564	-264.201717	22.216
N         -0.02820        1.49200        0.06700
C         -0.02650        0.02760       -0.02210
C         -1.38370       -0.50480        0.11360
C         -2.49720       -0.93820        0.21830
C          0.60110       -0.48920       -1.26700
N          1.12370       -0.83320       -2.23860
H          0.92010        1.83750       -0.05300
H         -0.58360        1.87630       -0.69220
H          0.57970       -0.34760        0.81350
H         -3.48270       -1.32360        0.31350
