12
gdb 20691	3.9616	1.99977	1.33998	3.0992	59.25	-0.2611	-0.0779	0.1831	842.6443	0.083207	-414.662766	-414.655897	-414.654953	-414.694437	24.119
C          0.01650        1.50230       -0.00060
C         -0.05960        0.00880       -0.00020
N         -1.14010       -0.63080       -0.26240
C         -1.08970       -2.02800       -0.23160
O         -2.04250       -2.73580       -0.46090
C          0.23730       -2.59590        0.10800
N          1.29440       -1.92100        0.36380
O          1.14450       -0.52970        0.30820
H          0.76060        1.84080       -0.72790
H         -0.96210        1.90880       -0.25070
H          0.33270        1.86300        0.98280
H          0.35260       -3.67540        0.15080
