10
gdb 21786	5.92324	1.68105	1.30943	3.7217	55.15	-0.2715	-0.1265	0.145	819.9828	0.060138	-409.607381	-409.601117	-409.600173	-409.638386	21.19
O         -0.06210       -0.00610       -0.00220
C          0.00060        1.19080        0.00710
C          1.29730        1.96930       -0.00010
N          1.18470        3.29490        0.01200
C          2.36040        3.91450        0.00540
N          3.55090        3.30960       -0.01200
N          3.57570        1.98410       -0.02270
N          2.45350        1.29190       -0.01690
H         -0.88680        1.85490        0.02250
H          2.37080        5.00090        0.01280
