15
gdb 3677	3.63992	3.22465	1.74682	1.952	62.78	-0.2269	0.0334	0.2603	718.0179	0.126214	-304.734646	-304.727519	-304.726575	-304.76573	25.519
C          0.01900        1.55350       -0.01480
C          0.00480        0.05620       -0.01690
C         -0.03320       -0.79310       -1.10250
N         -0.03160       -2.05620       -0.61040
N          0.00530       -2.09460        0.73580
C          0.02770       -0.81580        1.10720
C          0.07120       -0.44140        2.55480
H          0.91700        1.95140        0.47290
H         -0.00530        1.95180       -1.03310
H         -0.84300        1.96810        0.52150
H         -0.06070       -0.59470       -2.16310
H         -0.05370       -2.92040       -1.12280
H          0.96480        0.14790        2.79180
H         -0.79660        0.16460        2.84050
H          0.07970       -1.34180        3.17240
