22
gdb 12284	3.15018	1.44187	1.17712	1.598	78.28	-0.2374	0.0826	0.32	1149.2025	0.198947	-350.204527	-350.195035	-350.194091	-350.239065	34.729
C         -0.24990        1.51700        0.26070
C         -0.04960        0.01850        0.00960
C          0.80810       -0.62240        1.08740
O          0.18870       -0.55860        2.39510
C          0.48650       -1.94920        2.66020
C         -0.70520       -2.69900        3.22210
C          0.95690       -2.16710        1.19270
C          0.10290       -3.04230        0.28190
H          0.70600        2.05230        0.24640
H         -0.89590        1.96390       -0.50080
H         -0.70980        1.67980        1.23940
H         -1.02330       -0.48160       -0.02750
H          0.43230       -0.14230       -0.96390
H          1.78760       -0.11800        1.11130
H          1.32670       -2.02580        3.36720
H         -1.56700       -2.64940        2.55180
H         -0.45400       -3.75090        3.39630
H         -0.99770       -2.25830        4.18060
H          1.99750       -2.49690        1.12800
H         -0.95380       -2.76310        0.29770
H          0.44720       -2.97330       -0.75530
H          0.17220       -4.09340        0.58150
