19
gdb 9384	4.75998	0.86125	0.76505	4.6172	73.55	-0.2763	0.0204	0.2968	1505.8674	0.163082	-365.073471	-365.063628	-365.062684	-365.109244	33.687
C         -0.05460        1.49590        0.06090
C         -0.03220       -0.03010       -0.05570
C          0.78220       -0.50560       -1.25020
O          0.74290       -1.92560       -1.27630
C          1.39920       -2.50970       -2.38320
C          2.91090       -2.67110       -2.16300
C          0.76960       -3.82170       -2.62220
N          0.30230       -4.85650       -2.83240
H          0.95520        1.90340        0.18180
H         -0.49540        1.95930       -0.82850
H         -0.64460        1.81200        0.92550
H          0.39010       -0.47590        0.85180
H         -1.05060       -0.42210       -0.15240
H          0.36480       -0.10190       -2.18790
H          1.81920       -0.14260       -1.17090
H          1.22630       -1.90350       -3.28750
H          3.37480       -3.15720       -3.02550
H          3.37530       -1.69120       -2.02810
H          3.09490       -3.27690       -1.27300
