12
gdb 3693	7.33338	2.15928	1.68567	3.2974	51.95	-0.2205	0.0218	0.2422	694.1501	0.09183	-356.748545	-356.742198	-356.741254	-356.77862	22.808
C         -0.01480        1.48920        0.00490
C         -0.01930        0.00220       -0.01510
N         -0.10520       -0.72330       -1.08880
N         -0.07160       -2.02230       -0.62850
C          0.03590       -2.13620        0.74050
O          0.08940       -3.12050        1.44430
N          0.06760       -0.78410        1.11230
H          0.90850        1.87910        0.44760
H         -0.09520        1.85680       -1.01890
H         -0.85520        1.88260        0.58740
H         -0.12380       -2.78920       -1.27480
H          0.14410       -0.48310        2.06810
