18
gdb 14393	4.06994	1.93272	1.63595	1.7477	70.5	-0.2265	0.056	0.2825	849.2152	0.152115	-347.719379	-347.711766	-347.710822	-347.75138	29.625
C         -0.05600        1.59570        0.02250
C          0.08610        0.06880        0.03310
C         -1.12810       -0.62570       -0.58020
C          1.35890       -0.70970       -0.23350
C          2.63960       -0.13920        0.44900
O          2.32710        1.07020        1.15430
C          2.00550       -0.18920        1.76110
C          0.69200       -0.76220        1.14640
H          0.73650        2.07660       -0.55220
H         -1.01510        1.87020       -0.43080
H         -0.02780        2.01630        1.02850
H         -1.26810       -0.30540       -1.61860
H         -1.02750       -1.71550       -0.57300
H         -2.03740       -0.36600       -0.02690
H          1.40630       -1.49840       -0.97500
H          3.66560       -0.28600        0.13350
H          2.40070       -0.38560        2.75050
H          0.16470       -1.59630        1.59400
