14
gdb 4680	6.35629	1.34284	1.11635	3.9132	76.82	-0.2114	-0.0127	0.1987	1022.6158	0.107672	-341.600576	-341.593136	-341.592192	-341.632172	27.438
C          0.00470        1.49510        0.10140
C         -0.00210        0.01120       -0.03530
C         -0.05620       -0.81900       -1.13310
N         -0.03750       -2.13650       -0.76710
C          0.02810       -2.13310        0.55410
N          0.05140       -0.84540        1.03720
C          0.07110       -3.25370        1.41330
C          0.10910       -4.18800        2.17190
H          0.91720        1.86070        0.58780
H         -0.05070        1.95630       -0.88720
H         -0.84830        1.85960        0.68650
H         -0.10800       -0.52560       -2.17140
H          0.09940       -0.58770        2.00950
H          0.14190       -5.02330        2.82690
