16
gdb 8049	3.43245	1.87942	1.51243	4.4866	69.73	-0.2526	0.0035	0.2561	870.5622	0.131318	-342.721952	-342.714827	-342.713883	-342.753136	27.153
C         -0.02510        1.51060        0.03510
C          0.03420        0.00620        0.02820
C          0.53080       -0.96960       -1.06620
N          0.06610       -1.94970        0.02740
C          0.75640       -0.96650        0.99510
C         -1.15290       -1.00470        0.13440
C         -1.93690       -1.07890        1.35880
N         -2.57900       -1.10560        2.32000
H          0.97940        1.93760       -0.05140
H         -0.62490        1.88500       -0.80110
H         -0.47120        1.87830        0.96480
H         -0.03990       -1.04550       -1.99620
H          1.60590       -1.01940       -1.25190
H          1.84660       -1.01350        0.94470
H          0.40150       -1.04010        2.02510
H         -1.81690       -1.07920       -0.73160
