15
gdb 14886	5.02794	1.52627	1.22045	2.108	71.17	-0.2476	-0.0205	0.2271	962.7348	0.119607	-362.641433	-362.634238	-362.633294	-362.672861	26.922
C          0.09790       -1.17030        0.03430
C          0.00300        0.02700        0.00490
C         -0.10250        1.45880       -0.02810
N         -1.23980        2.02430        0.01060
C         -1.29840        3.48110        0.03940
C          0.02420        4.13400        0.45110
C          1.15010        3.45210       -0.31330
O          1.13190        2.03350       -0.09690
H          0.17050       -2.22970        0.06060
H         -1.60710        3.83170       -0.95540
H         -2.10510        3.76830        0.72270
H          0.02300        5.20860        0.24290
H          0.18870        4.00450        1.52660
H          1.05730        3.63940       -1.39150
H          2.13980        3.78320        0.00880
