13
gdb 4587	5.94363	1.58792	1.25456	2.0576	65.37	-0.2064	-0.0392	0.1672	891.1098	0.098125	-394.841434	-394.834926	-394.833982	-394.87181	25.337
N         -0.02660        1.38730       -0.08300
C         -0.00980       -0.00030       -0.03760
C         -1.18490       -0.76420       -0.07820
N         -1.15550       -2.09510       -0.09070
C          0.03620       -2.67730       -0.07110
O          0.09950       -4.02900       -0.08730
C          1.21420       -1.92720       -0.02970
N          1.18710       -0.59930       -0.00790
H          0.84480        1.79970        0.21860
H         -0.83530        1.83100        0.32580
H         -2.16310       -0.29000       -0.10100
H         -0.81480       -4.34150       -0.11510
H          2.18260       -2.41800       -0.00760
