17
gdb 11513	4.54916	1.04339	0.94025	1.8328	69.33	-0.252	0.023	0.275	1228.3212	0.143313	-360.018665	-360.010193	-360.009249	-360.052155	30.371
N          0.14190        1.43520        0.15110
C         -0.08620       -0.00040       -0.02280
C         -1.60000       -0.30940        0.00120
C         -2.21900       -0.01300        1.34720
C         -3.42800       -0.74580        1.79120
N         -2.12700       -0.99920        2.44010
C          0.52890       -0.54090       -1.25530
N          1.01330       -0.92330       -2.23330
H          1.13440        1.62630        0.24670
H         -0.17230        1.93670       -0.67540
H          0.38240       -0.51210        0.82640
H         -2.08630        0.28500       -0.78330
H         -1.75660       -1.36240       -0.26080
H         -2.07940        1.00950        1.68650
H         -4.16550       -0.25350        2.41830
H         -3.83520       -1.50620        1.12890
H         -1.74190       -1.87330        2.08650
