14
gdb 2775	5.01284	2.06468	1.57191	0.7173	56.55	-0.2558	0.0172	0.273	779.0213	0.112496	-361.696319	-361.688763	-361.687818	-361.728452	25.46
C         -0.03090        1.38890        0.06400
N         -0.06110       -0.05780        0.23520
C         -1.12360       -0.68070        0.02660
O         -2.38200       -0.25610       -0.36360
C         -2.84080       -1.63980       -0.50840
C         -1.48820       -2.15460        0.02270
O         -0.77820       -2.97080       -0.87300
H          0.82180        1.65410       -0.56930
H         -0.94470        1.80340       -0.37700
H          0.13360        1.86330        1.03800
H         -3.72400       -1.82620        0.10540
H         -3.02230       -1.88930       -1.55580
H         -1.54430       -2.59600        1.02690
H          0.15750       -2.76760       -0.75920
