16
gdb 4820	7.03696	1.29134	1.10631	2.8399	68.74	-0.1917	0.0328	0.2245	1065.7767	0.131312	-379.948782	-379.940768	-379.939824	-379.981531	28.141
C          0.00280        1.40880        0.04360
O          0.04690       -0.01150       -0.02230
C          0.63650       -0.62830        1.02090
C          0.78520       -1.98910        1.15780
N          1.43850       -2.14900        2.36890
C          1.82960       -3.40480        2.97140
C          1.63930       -0.90850        2.87610
N          1.16630        0.03890        2.08650
H          1.00950        1.83730        0.09010
H         -0.49950        1.73310       -0.86950
H         -0.55690        1.75010        0.92070
H          0.50110       -2.82050        0.53740
H          2.52430       -3.94950        2.32410
H          2.32510       -3.20210        3.92290
H          0.95610       -4.03720        3.15950
H          2.13440       -0.75160        3.82300
