13
gdb 20316	6.48046	1.31837	1.10286	3.7241	63.87	-0.2549	-0.0032	0.2518	991.918	0.096168	-357.608443	-357.601395	-357.600451	-357.640612	25.44
C         -0.38560       -0.80310       -0.98250
C         -0.08250        0.06810       -0.21260
C          0.29330        1.12820        0.71610
C          1.51000        1.89790        0.28350
C          2.30460        1.75670       -0.82820
N          3.24070        2.72360       -0.67850
N          3.05030        3.42740        0.45120
N          2.00060        2.92650        1.03490
H         -0.66580       -1.57700       -1.65340
H         -0.54580        1.82440        0.84260
H          0.47310        0.70200        1.71150
H          2.27570        1.08100       -1.66490
H          4.01320        2.95800       -1.28110
