14
gdb 2758	4.49388	2.30738	1.73147	3.8063	57.92	-0.2486	0.0121	0.2607	718.483	0.115451	-320.735225	-320.728399	-320.727454	-320.766088	24.7
N          0.21310        1.45100       -0.05790
C          0.09470        0.01960        0.03020
C          0.11350       -0.50840        1.48660
N         -1.36020       -0.65530        1.43890
C         -1.35330       -0.63800       -0.03660
C         -2.40850        0.14910       -0.66700
N         -3.20330        0.80430       -1.19230
H          0.02370        1.77540       -1.00150
H         -0.46320        1.90450        0.55030
H          0.80530       -0.44270       -0.65670
H          0.66900       -1.45050        1.58570
H          0.47140        0.19940        2.24040
H         -1.75190       -1.48810        1.86330
H         -1.31660       -1.62850       -0.51200
