15
gdb 21240	3.36321	1.99137	1.30381	2.1885	63.47	-0.2049	0.037	0.2419	904.9442	0.120475	-395.975111	-395.967119	-395.966175	-396.008025	28.26
C         -0.57020        0.80920       -0.14470
O          0.79970        0.64800        0.24510
C          1.04100       -0.34160        1.12570
C          0.63150       -1.66400        1.23790
N         -0.29030       -2.33530        0.38720
C          1.33340       -2.13440        2.37490
N          2.11290       -1.20640        2.91880
N          1.91920       -0.12160        2.13560
H         -1.17670        1.12330        0.71290
H         -0.57520        1.59250       -0.90410
H         -0.97520       -0.12210       -0.54790
H          0.17300       -2.74090       -0.42060
H         -0.74510       -3.09540        0.88050
H          1.28900       -3.12280        2.81230
H          2.41440        0.73440        2.31890
