21
gdb 7368	3.51058	1.19303	0.96681	3.4256	76.6	-0.2305	0.037	0.2676	1288.8073	0.186961	-366.302441	-366.292192	-366.291248	-366.338243	35.517
C          0.37660        1.43700        0.05340
C          0.12950       -0.07310        0.08340
C         -1.36370       -0.41710        0.01320
N         -1.63350       -1.85240        0.08080
C         -1.82270       -2.41630        1.40270
C         -1.65020       -2.55940       -1.09460
C         -1.95750       -4.05050       -1.02620
O         -1.43210       -2.01420       -2.16610
H          1.44590        1.66420        0.09510
H         -0.02280        1.88410       -0.86340
H         -0.10280        1.93800        0.90230
H          0.62750       -0.55360       -0.76520
H          0.56510       -0.50250        0.99480
H         -1.90360        0.06480        0.83790
H         -1.77780       -0.04750       -0.92750
H         -1.93060       -3.49810        1.35570
H         -0.96440       -2.19430        2.04970
H         -2.71940       -2.00320        1.88430
H         -2.92040       -4.25320       -0.54710
H         -1.98440       -4.41830       -2.05120
H         -1.18710       -4.59960       -0.47510
