20
gdb 12781	3.48716	1.51886	1.27834	1.7704	74.86	-0.2425	0.0885	0.331	1055.7552	0.17576	-348.981538	-348.97302	-348.972076	-349.014303	32.031
C          0.05340        1.53430        0.14420
C         -0.13470        0.03820       -0.12670
C          0.71540       -0.47540       -1.28330
C          2.27950       -0.55420       -1.10330
C          2.18420       -2.05920       -1.37290
O          1.30810       -2.60750       -0.37530
C          0.72120       -2.00200       -1.54040
C         -0.24370       -2.81170       -2.34390
H          1.09590        1.76690        0.38730
H         -0.22290        2.13500       -0.72980
H         -0.56460        1.86590        0.98450
H          0.11440       -0.54150        0.76900
H         -1.19300       -0.16160       -0.34280
H          0.47320        0.06400       -2.20680
H          2.82680       -0.00120       -1.87030
H          2.67110       -0.29310       -0.11630
H          2.92110       -2.73050       -1.80060
H         -1.22130       -2.85830       -1.85030
H         -0.39000       -2.37100       -3.33550
H          0.12330       -3.83460       -2.46410
