18
gdb 18645	2.87741	2.22215	1.8399	2.1278	66.65	-0.236	0.0732	0.3092	822.4282	0.155215	-384.93091	-384.923759	-384.922815	-384.96183	28.45
C          0.03830        1.55350       -0.04780
C          0.07040        0.03440        0.03780
O          0.81150       -0.48020       -1.08580
C          1.24290       -1.80560       -0.75710
C          1.52160       -1.78210        0.73520
C          2.27760       -0.57340        1.22480
O          3.05320        0.23490        0.39070
C          0.76790       -0.55900        1.25320
H          1.04280        1.97040        0.05860
H         -0.38290        1.87380       -1.00500
H         -0.58740        1.95760        0.75380
H         -0.95980       -0.35680       -0.00660
H          0.46070       -2.54250       -0.99440
H          2.12030       -2.01940       -1.37620
H          1.56000       -2.72240        1.27340
H          2.76610       -0.67420        2.18870
H          2.59030        0.29240       -0.45690
H          0.23770       -0.56170        2.19910
