16
gdb 10048	3.39475	1.35785	1.00756	1.6608	72.99	-0.2556	0.0275	0.2831	1117.816	0.127386	-346.530365	-346.521318	-346.520374	-346.563975	32.951
O          0.20210        1.36120        0.32150
C          0.09430       -0.00650        0.00570
C         -1.36890       -0.52470        0.02610
C         -2.18760       -0.07570       -1.22150
C         -2.28350        1.36950       -1.40210
C         -2.37080        2.55880       -1.56510
C         -1.39190       -1.98090        0.11310
C         -1.38320       -3.18230        0.15520
H         -0.29750        1.86220       -0.33460
H          0.54340       -0.24830       -0.97160
H          0.66460       -0.54520        0.76720
H         -1.83960       -0.09880        0.92080
H         -1.73300       -0.52600       -2.11250
H         -3.19680       -0.49560       -1.14710
H         -2.46380        3.60720       -1.70940
H         -1.38250       -4.24280        0.21210
