11
gdb 21915	3.38763	2.42325	1.41271	2.8034	56.23	-0.2555	-0.0639	0.1917	776.901	0.07278	-434.530794	-434.524673	-434.523729	-434.56112	22.975
O         -0.07630        1.30660        0.01060
C         -0.00010       -0.02490        0.00280
N          1.17970       -0.55480       -0.00760
O          1.25660       -1.94400       -0.01550
C          0.13860       -2.67560       -0.01210
C         -1.11400       -2.17880       -0.00140
C         -1.31270       -0.74710        0.00740
O         -2.37400       -0.15440        0.01750
H          0.82810        1.65550        0.00670
H          0.38490       -3.73200       -0.01930
H         -1.97100       -2.83950        0.00060
