20
gdb 10731	2.83508	1.50657	1.34927	1.4551	70.32	-0.2527	0.0708	0.3236	1054.8795	0.174744	-386.123158	-386.113706	-386.112761	-386.157187	34.679
C          0.01150        1.63890        0.11700
C         -0.07200        0.12790        0.34760
C         -1.44800       -0.48740        0.14310
C         -2.67880        0.30550        0.26860
O         -2.16980       -0.05750       -1.02210
C         -1.55830       -1.99860        0.37250
C         -0.78450       -2.81430       -0.66240
O         -1.19720       -2.33950        1.70840
H          1.05430        1.96830        0.12010
H         -0.42830        1.90350       -0.84850
H         -0.51120        2.19930        0.89780
H          0.62720       -0.37320       -0.33390
H          0.25660       -0.11630        1.36510
H         -3.60410       -0.18910        0.56150
H         -2.63320        1.36700        0.49930
H         -2.62000       -2.25580        0.28640
H          0.29640       -2.64710       -0.58330
H         -0.97280       -3.88120       -0.51490
H         -1.09580       -2.53730       -1.67340
H         -0.24070       -2.44150        1.74120
