14
gdb 300	5.24096	3.07084	2.60289	1.9707	49.85	-0.2427	0.0794	0.3221	557.5787	0.117602	-307.546144	-307.539271	-307.538327	-307.575926	25.546
C         -0.03340        1.55010        0.01910
C          0.00430        0.04060        0.03790
O         -1.17240       -0.58800       -0.40290
C          1.31080       -0.69310       -0.22030
C          0.67200       -0.68760        1.15770
O          1.23380        0.07720        2.18300
H          0.85250        1.96850        0.50010
H         -0.08100        1.92610       -1.01020
H         -0.91800        1.90830        0.55460
H         -1.25840       -0.41660       -1.34750
H          1.27120       -1.61430       -0.79120
H          2.20530       -0.09310       -0.35400
H          0.18180       -1.60820        1.47220
H          2.05270       -0.35000        2.45450
