11
gdb 403	5.99149	3.23476	2.47902	3.8379	47.2	-0.3007	0.0031	0.3038	525.818	0.083704	-285.281032	-285.275044	-285.2741	-285.310299	20.903
C         -0.02540        1.51410        0.02230
C         -0.01220        0.00470       -0.06460
C          0.76210       -0.71230       -1.09890
O          1.22330       -0.64530        0.24780
C         -1.19080       -0.65880        0.47450
N         -2.14330       -1.15600        0.89980
H          0.89440        1.91370       -0.41040
H         -0.88380        1.92360       -0.51780
H         -0.09090        1.83550        1.06540
H          0.43370       -1.69310       -1.43520
H          1.32510       -0.12250       -1.82050
