15
gdb 16921	3.7951	2.24944	2.05087	3.5932	64.08	-0.2308	-0.0147	0.2161	716.2888	0.122585	-362.692861	-362.687179	-362.686235	-362.722351	23.661
O         -0.00030       -0.00610        0.09440
C         -0.00260        1.19590       -0.01300
N         -1.10720        2.03140       -0.10420
C         -0.62730        3.42970        0.02420
C          0.61880        3.31900       -0.88480
C          1.20880        2.16940       -0.02380
C          1.14820        2.82870        1.36120
C          0.05640        3.59660        1.39400
H         -1.96740        1.73280        0.33070
H         -1.39710        4.14910       -0.24940
H          0.36780        3.03140       -1.90900
H          1.24180        4.21430       -0.87260
H          2.14570        1.70230       -0.31530
H          1.84260        2.61560        2.16220
H         -0.33870        4.16530        2.22490
