20
gdb 8331	5.11079	1.32624	1.30092	1.4423	75.18	-0.236	0.0804	0.3164	1051.8988	0.177003	-348.99008	-348.982155	-348.981211	-349.022573	30.444
C          0.40420        1.57840        0.06640
C         -0.05940        0.14270       -0.07550
C          0.48030       -0.69020       -1.25830
C          1.03670       -1.62680       -0.16460
C          0.61150       -3.11430       -0.12710
C          2.03350       -3.48420       -0.63260
C          2.51320       -2.07810       -0.17650
O          0.58350       -0.74460        0.87440
H          1.48900        1.65020       -0.06060
H         -0.07910        2.21310       -0.68480
H          0.14850        1.96680        1.05740
H         -1.15130        0.08670        0.03360
H         -0.26640       -1.12290       -1.92690
H          1.24490       -0.18060       -1.85010
H          0.45590       -3.42910        0.90900
H         -0.25320       -3.41540       -0.72490
H          2.51700       -4.35040       -0.17750
H          2.06770       -3.59850       -1.71930
H          3.20910       -1.52680       -0.81480
H          2.90430       -2.09550        0.84510
