15
gdb 12049	4.0647	1.72216	1.53578	1.8295	66.81	-0.2436	0.0216	0.2652	854.7735	0.117493	-362.569342	-362.561913	-362.560969	-362.600637	28.634
O          0.07970        1.40150        0.14070
C          0.02010       -0.01020        0.04630
C          0.17960       -0.70230        1.43310
N         -1.15650       -1.38220        1.32840
C         -2.14200       -0.29300        1.22120
C         -1.38100       -0.65670        0.01230
C          0.90770       -0.51450       -0.99450
C          1.62150       -0.89910       -1.88230
H          0.05880        1.76420       -0.75210
H          0.98470       -1.43590        1.46480
H          0.26700       -0.00490        2.27130
H         -3.16770       -0.64270        1.28280
H         -1.94420        0.65690        1.71160
H         -1.81430       -1.15120       -0.85050
H          2.26240       -1.24600       -2.65520
