16
gdb 3323	6.43039	1.94104	1.76672	1.6101	60.57	-0.2336	0.0728	0.3064	756.1055	0.137081	-325.712603	-325.705857	-325.704912	-325.743374	24.728
C          0.02720        1.30720       -0.15360
O         -0.02230       -0.00540        0.36100
C         -1.27090       -0.62140        0.18250
C         -1.64290       -1.22720       -1.20530
N         -1.83280       -2.59660       -0.60580
C         -0.51630       -2.95810       -0.05670
C         -1.35460       -2.03320        0.73050
H          1.02500        1.70060        0.05390
H         -0.14290        1.33150       -1.24080
H         -0.71970        1.95960        0.32550
H         -2.07430        0.02480        0.56460
H         -2.58360       -0.85920       -1.61910
H         -0.86170       -1.18770       -1.97180
H         -0.46780       -3.98780        0.28330
H          0.38400       -2.58940       -0.54210
H         -1.81630       -2.31660        1.67020
