15
gdb 9012	6.82243	0.82506	0.76097	3.7634	71.	-0.2608	0.0081	0.2689	1440.2934	0.116245	-362.645991	-362.636493	-362.635549	-362.682012	31.515
C          0.00530        1.49740       -0.01040
C          0.00500        0.04260        0.03340
C          0.00890       -1.16030        0.06730
C         -0.00490       -2.61470        0.11490
C         -1.42590       -3.19580       -0.10550
O         -2.00090       -2.82470       -1.33680
C         -1.39000       -4.66720        0.04850
N         -1.33770       -5.81770        0.14250
H          0.84480        1.87590       -0.60360
H         -0.91770        1.87820       -0.46090
H          0.08730        1.92680        0.99400
H          0.66360       -3.03730       -0.64740
H          0.36910       -2.97740        1.08060
H         -2.09270       -2.78950        0.66150
H         -1.44020       -3.15430       -2.04900
