14
gdb 10822	5.08077	1.54425	1.22916	4.8041	60.17	-0.2676	-0.0521	0.2155	916.767	0.107684	-419.70941	-419.7023	-419.701356	-419.740849	26.129
O          0.01410        1.39320        0.14890
C          0.03990       -0.01620       -0.01850
C         -1.42010       -0.46110       -0.02520
O         -1.57390       -1.83780       -0.38470
C         -0.91180       -2.31150       -1.47590
O         -1.20310       -3.38740       -1.92740
C          0.19280       -1.47510       -2.00510
C          0.67220       -0.43580       -1.32130
H          0.90020        1.69220        0.37450
H          0.56980       -0.49980        0.81870
H         -1.86980       -0.35580        0.96310
H         -1.96880        0.17550       -0.73030
H          0.61990       -1.82090       -2.93880
H          1.52940        0.13190       -1.67560
