17
gdb 13097	4.10368	1.30239	1.11981	4.3551	66.73	-0.2438	0.0343	0.2781	1071.1928	0.142338	-401.011096	-401.002909	-401.001965	-401.044265	29.654
O         -0.16130        1.41110       -0.02660
C         -0.02800       -0.00230        0.01860
C          0.29020       -0.53710        1.44080
C         -1.23740       -0.63740        1.70940
C         -1.45330       -0.60000        0.16790
N         -2.53210        0.16390       -0.39330
C         -3.54780       -0.38680       -1.10980
O         -3.71080       -1.57440       -1.29890
H          0.70720        1.80290        0.10540
H          0.58650       -0.36420       -0.81540
H          0.77560       -1.51630        1.40600
H          0.87470        0.12630        2.08290
H         -1.61050       -1.51270        2.24390
H         -1.62450        0.26650        2.18490
H         -1.51250       -1.60720       -0.24660
H         -2.44300        1.16800       -0.35650
H         -4.23510        0.38700       -1.50630
