17
gdb 20935	7.19843	1.07857	0.95216	2.5905	71.44	-0.187	0.0304	0.2174	1207.9672	0.144371	-360.053049	-360.045132	-360.044188	-360.085859	28.884
C         -0.03130        1.53180        0.03630
C         -0.05120        0.01130       -0.07670
N          0.84370       -0.43560       -1.13660
C          0.89590       -1.80630       -1.40920
C          1.42240       -2.42570       -2.53110
N          1.29880       -3.76510       -2.31610
N          0.73440       -4.06640       -1.14260
C          0.48180       -2.88170       -0.58280
H          0.98360        1.89340        0.22550
H         -0.39270        2.00110       -0.88640
H         -0.67840        1.86630        0.85180
H          0.29350       -0.42990        0.86650
H         -1.08630       -0.34220       -0.22790
H          0.73870        0.12080       -1.97490
H          1.86330       -2.02700       -3.43040
H          1.57650       -4.51020       -2.93090
H          0.01610       -2.83950        0.38960
