22
gdb 11751	4.6994	1.25383	1.16307	0.3028	82.42	-0.2415	0.089	0.3305	1159.1663	0.200154	-313.054111	-313.045418	-313.044474	-313.086987	33.384
C          0.05710        1.50420       -0.22390
C         -0.11410        0.00130        0.03870
C          0.63850       -0.47190        1.25230
C          2.09200       -0.85900        1.22360
C          1.07550       -1.88180        1.66400
C          0.62310       -1.63180        3.11130
C          1.61240       -1.85610        4.24890
C          0.23710       -0.16540        2.70690
H          1.10940        1.75520       -0.39310
H         -0.51260        1.82090       -1.10320
H         -0.29120        2.09580        0.62960
H         -1.18230       -0.22680        0.15820
H          0.22350       -0.56520       -0.83870
H          2.50570       -1.02840        0.23360
H          2.80220       -0.43060        1.92760
H          0.95240       -2.81500        1.12460
H         -0.29120       -2.19910        3.31350
H          2.54780       -1.31100        4.08540
H          1.19550       -1.51890        5.20460
H          1.86100       -2.91860        4.35010
H          0.80030        0.63660        3.19750
H         -0.83030        0.03740        2.83020
