18
gdb 15636	3.20994	1.59148	1.17315	0.7883	69.99	-0.2371	0.0235	0.2606	1038.8664	0.153805	-384.944853	-384.936397	-384.935453	-384.978088	30.819
O          0.03520        1.40540        0.15730
C          0.01540       -0.00960        0.23240
C         -1.38120       -0.50970        0.05930
C         -2.49290        0.21090       -0.09490
C         -3.72430       -0.64290       -0.27230
C         -3.20410       -2.07850       -0.00350
C         -1.65670       -1.99500       -0.06100
O         -1.08030       -2.53770       -1.25510
H          0.94390        1.69670        0.27250
H          0.65170       -0.46930       -0.54200
H          0.40770       -0.36500        1.20260
H         -2.51700        1.29390       -0.10800
H         -4.52590       -0.36090        0.42020
H         -4.14720       -0.52530       -1.27970
H         -3.51560       -2.40600        0.99280
H         -3.56960       -2.82090       -0.71740
H         -1.19090       -2.58330        0.73760
H         -1.37640       -1.98510       -1.98760
