17
gdb 19022	4.59307	1.73961	1.73046	2.6747	68.1	-0.2187	0.0633	0.282	838.075	0.142752	-363.77012	-363.763525	-363.762581	-363.800521	26.278
C         -0.13850        1.31010        0.05990
N          0.08760       -0.12370       -0.09830
C          0.83500       -0.47180       -1.31070
C          1.50210       -0.50240        0.03620
C          1.59290       -2.05140       -0.03820
O          0.52710       -2.80230        0.56150
C         -0.21880       -2.81940       -0.68530
C          0.88670       -2.01580       -1.41130
H          0.67950        1.94000       -0.32930
H         -1.05980        1.58480       -0.46310
H         -0.26710        1.53400        1.12310
H          0.93500        0.24360       -2.11860
H          2.20550        0.18730        0.48890
H          2.58550       -2.47580        0.13560
H         -0.34440       -3.84550       -1.05070
H         -1.18900       -2.32590       -0.58720
H          1.33600       -2.42930       -2.31210
