14
gdb 21528	3.44417	1.89801	1.28147	2.9722	60.49	-0.2121	-0.0099	0.2023	895.5302	0.108377	-415.838434	-415.831079	-415.830134	-415.87017	27.058
N         -0.11280        1.39480       -0.13160
C         -0.05470        0.00080       -0.06810
C         -1.08960       -0.88670        0.03150
C         -2.56810       -0.68330        0.01760
O         -2.94780        0.31540       -0.92950
O         -0.60200       -2.14650        0.14590
N          0.77840       -2.10580        0.12550
C          1.09400       -0.83800        0.00160
H          0.63380        1.80450       -0.67660
H         -1.01360        1.71200       -0.46980
H         -3.06850       -1.64370       -0.16660
H         -2.92660       -0.30710        0.98260
H         -2.69460       -0.00630       -1.80200
H          2.13700       -0.55450       -0.03580
