17
gdb 6441	3.87329	1.47213	1.29329	4.3279	68.97	-0.2742	0.0141	0.2883	1000.7953	0.140647	-363.870763	-363.862365	-363.861421	-363.903617	30.638
C          0.32430        1.62610        0.04120
C         -0.02310        0.15770       -0.05580
C          0.51140       -0.66520       -1.24750
C          1.12280       -1.58860       -0.15660
C          2.62420       -1.83960       -0.18400
O          0.74220       -0.65720        0.87970
C          0.38750       -2.86050       -0.00630
N         -0.18980       -3.85620        0.09960
H          1.39080        1.78880       -0.14180
H         -0.24990        2.20100       -0.69350
H          0.08290        2.00940        1.03730
H         -1.09690        0.00470        0.11270
H         -0.22430       -1.11500       -1.91300
H          1.27760       -0.15200       -1.83260
H          3.14800       -0.88860       -0.30720
H          2.94790       -2.30120        0.75270
H          2.88810       -2.50630       -1.01040
