15
gdb 10810	4.84098	1.60915	1.28413	4.3067	65.16	-0.2426	0.0108	0.2533	917.4212	0.121062	-395.99999	-395.992828	-395.991884	-396.031432	27.068
N          0.02490        1.33490        0.44590
C         -0.06180        0.00990        0.07490
N         -1.16300       -0.62790        0.12550
C         -1.13260       -1.96150       -0.46630
C          0.14370       -2.72790       -0.20240
N          0.14970       -3.97520        0.00550
O          1.29430       -1.98820       -0.17910
C          1.19910       -0.60210       -0.49450
H          0.88780        1.63670        0.87260
H         -0.80510        1.68070        0.90840
H         -1.96120       -2.55810       -0.08330
H         -1.27870       -1.88900       -1.55640
H          1.10620       -4.30620        0.14970
H          1.20900       -0.45850       -1.58510
H          2.10470       -0.13770       -0.09400
