16
gdb 13272	8.04149	0.73593	0.72121	2.076	70.74	-0.2493	0.0251	0.2744	1536.3691	0.129322	-383.672493	-383.663749	-383.662805	-383.708058	29.261
O          0.07260        1.36310        0.65680
C          0.02010        0.19560       -0.15430
C         -1.33130       -0.34900       -0.14420
C         -2.44370       -0.81070       -0.14550
C         -3.77570       -1.37330       -0.15380
C         -4.43900       -1.72910       -1.51520
O         -4.75720       -3.05590       -1.05740
C         -3.95800       -2.89220        0.12820
H          0.97650        1.69290        0.62560
H          0.30900        0.41930       -1.19450
H          0.72000       -0.57460        0.20970
H         -4.44390       -0.77090        0.46810
H         -5.33260       -1.15780       -1.78790
H         -3.73620       -1.73730       -2.35760
H         -3.02250       -3.46330        0.08110
H         -4.50530       -3.15830        1.03860
