16
gdb 16211	3.13853	2.24466	1.49821	0.9952	65.11	-0.2245	-0.0329	0.1915	841.6172	0.132854	-379.909517	-379.902518	-379.901574	-379.94087	26.435
O          0.08130        0.06370       -0.14560
C          0.01210        1.24960        0.07110
C         -1.24220        2.11080        0.25550
N         -0.83420        3.48970       -0.05150
C          0.59450        3.58640        0.33440
C          1.18120        2.19810        0.13230
C          2.49270        1.68900        0.61190
N          2.29490        1.96160       -0.81160
H         -2.06860        1.76850       -0.37040
H         -1.56770        2.03650        1.30380
H         -0.90070        3.62350       -1.05590
H          1.10680        4.34480       -0.25990
H          0.65500        3.88020        1.39030
H          3.16050        2.37650        1.12450
H          2.53280        0.65410        0.94180
H          2.11490        1.07530       -1.28620
