15
gdb 21961	6.81307	1.10198	1.02554	3.0896	62.87	-0.2587	-0.0019	0.2567	1108.807	0.12033	-395.969262	-395.961759	-395.960815	-396.002219	26.239
O          0.06960        1.40720        0.19310
C          0.01420       -0.00180        0.28290
C         -1.36350       -0.53000       -0.14940
N         -1.45330       -1.97480       -0.04110
C         -1.81610       -2.73890        1.01730
C         -1.63550       -4.02890        0.58040
N         -1.17510       -3.99370       -0.69980
N         -1.06140       -2.75110       -1.07390
H          0.14460        1.64780       -0.73580
H          0.79380       -0.49490       -0.31350
H          0.19160       -0.25450        1.33340
H         -2.14590       -0.07590        0.46360
H         -1.55300       -0.27610       -1.19570
H         -2.16390       -2.31550        1.94460
H         -1.81270       -4.95880        1.09580
