16
gdb 12914	3.42079	1.65477	1.3762	3.5692	66.45	-0.2333	-0.0205	0.2127	933.8091	0.128981	-383.708397	-383.700744	-383.6998	-383.740405	28.106
C         -0.12020        1.51940        0.10390
C          0.01910        0.03330        0.10350
O         -1.17900       -0.75010       -0.01090
C         -0.65610       -1.71160        0.94740
C          0.67900       -0.98360        0.99050
C          1.20790       -0.74430       -0.43630
C          1.10430       -1.71810       -1.54820
O          2.00520       -1.94350       -2.32270
H          0.85030        1.99610        0.26560
H         -0.51280        1.86510       -0.85850
H         -0.80890        1.84340        0.89010
H         -1.20670       -1.64390        1.89190
H         -0.68870       -2.74040        0.57510
H          1.32960       -0.86970        1.84680
H          2.13950       -0.18560       -0.43800
H          0.12340       -2.22460       -1.64720
