17
gdb 17572	3.52445	2.42197	1.95146	3.0293	67.11	-0.2272	0.0772	0.3044	755.7309	0.14345	-363.797969	-363.791614	-363.79067	-363.827947	26.342
C         -0.00550        1.50550        0.09640
C          0.01760        0.00870       -0.01540
C          0.90740       -0.80990       -1.00680
C          0.72050       -1.81360        0.16290
O          0.70900       -0.68200        1.06900
C         -0.78580       -2.16210        0.03150
N         -1.60580       -1.57380        1.11550
C         -1.31750       -0.79070       -0.10780
H          1.00880        1.90980        0.15280
H         -0.50870        1.94630       -0.77060
H         -0.54950        1.80590        0.99750
H          0.50730       -1.06310       -1.99360
H          1.92540       -0.42090       -1.06820
H          1.43800       -2.59090        0.42240
H         -1.13030       -3.01850       -0.53550
H         -2.54890       -1.95040        1.02200
H         -2.10720       -0.49810       -0.78980
