14
gdb 5770	6.36739	1.45293	1.29183	2.7714	64.61	-0.2319	-0.0002	0.2316	916.8478	0.109751	-378.719243	-378.712821	-378.711877	-378.75042	23.536
C          0.40570        1.54810        0.22350
N          1.25560        0.42680       -0.19240
C         -0.17760        0.18370        0.09000
C         -0.51330       -0.65570        1.24410
C         -1.41340       -1.64890        1.45920
N         -1.31260       -2.09200        2.77320
C         -0.37620       -1.35880        3.27610
O          0.16170       -0.45890        2.41960
H          0.62110        1.93200        1.21580
H          0.11320        2.29760       -0.50730
H          1.40370        0.45020       -1.19820
H         -0.83740        0.01230       -0.75650
H         -2.12270       -2.07650        0.76850
H          0.02800       -1.37490        4.27600
