24
gdb 8004	3.06025	1.51827	1.16586	0.2039	84.66	-0.2943	0.0774	0.3716	1161.1607	0.224231	-314.301013	-314.291881	-314.290936	-314.334697	35.327
C         -0.10270        1.54210       -0.05860
C          0.06810        0.02840        0.05320
C          0.67470       -0.63630       -1.20360
C          1.40800       -1.92920       -0.73020
C          2.85320       -1.97130       -1.24290
C          1.26150       -1.91980        0.82960
C          2.38580       -2.57990        1.62770
C          1.00750       -0.44340        1.17320
H          0.86280        2.03250       -0.23130
H         -0.76350        1.80980       -0.89050
H         -0.53280        1.96570        0.85560
H         -0.91900       -0.41790        0.24040
H         -0.08030       -0.83750       -1.96990
H          1.40070        0.05070       -1.65770
H          0.89640       -2.81490       -1.12370
H          3.44040       -1.12630       -0.86480
H          3.36770       -2.89280       -0.95360
H          2.86840       -1.91320       -2.33670
H          0.33350       -2.46080        1.06170
H          3.34370       -2.07030        1.48110
H          2.16160       -2.55530        2.69960
H          2.52050       -3.62980        1.34490
H          1.94920        0.12400        1.13430
H          0.58920       -0.30450        2.17600
