20
gdb 16659	2.77934	2.21407	1.68625	1.4392	73.76	-0.2574	0.0706	0.328	878.4493	0.178514	-349.007352	-348.999653	-348.998709	-349.038695	30.767
C         -0.82240        1.21990        0.00890
C          0.02860       -0.05180       -0.00180
C          0.96910       -0.20430       -1.19530
C          2.27880        0.54890       -1.18070
C          2.23140       -0.89020       -0.72460
C          2.08260       -1.15750        0.76720
C          0.93210       -0.23840        1.24490
O          1.39880        1.04310        1.66920
H         -0.19390        2.11230        0.02760
H         -1.45500        1.26210       -0.88380
H         -1.47720        1.25280        0.88600
H         -0.64810       -0.91790       -0.01910
H          0.52560       -0.44380       -2.15630
H          2.74170        0.74010       -2.14330
H          2.42730        1.32480       -0.43990
H          2.72320       -1.64180       -1.33260
H          1.80510       -2.20690        0.92670
H          2.99840       -0.97740        1.34460
H          0.36630       -0.70320        2.06510
H          2.01620        0.90290        2.39360
