18
gdb 12397	3.06076	2.08802	1.314	3.604	68.83	-0.2148	0.0311	0.2459	936.5267	0.156532	-381.152584	-381.144785	-381.143841	-381.184767	28.794
C         -0.05920        1.46340        0.02240
N          0.02150        0.01520       -0.06240
C         -1.24510       -0.70670        0.00120
C         -1.08860       -2.17630       -0.39110
N          0.03790       -2.81820        0.27440
C          1.27680       -2.11990       -0.05450
C          1.25380       -0.58670       -0.03710
O          2.30070        0.04030       -0.03540
H          0.95340        1.86240       -0.00830
H         -0.64040        1.86550       -0.81610
H         -0.54650        1.77420        0.95620
H         -1.66380       -0.63310        1.01900
H         -1.96290       -0.21100       -0.66690
H         -2.01330       -2.71500       -0.16110
H         -0.92680       -2.25430       -1.47370
H         -0.10760       -2.79540        1.27960
H          2.07600       -2.43050        0.62240
H          1.59690       -2.41430       -1.06360
