18
gdb 17330	3.48216	2.14747	1.78733	1.4909	70.18	-0.2285	0.0896	0.3181	818.6382	0.154567	-347.772042	-347.765196	-347.764252	-347.802507	27.962
C         -0.02530        1.52280        0.00450
C          0.02880        0.01290        0.00090
C         -0.60210       -0.77890        1.13510
C          0.89450       -0.79330        0.93970
O          1.48520       -1.87100        0.25310
C          1.16750       -1.80030       -1.11670
C         -0.23950       -2.10940       -1.55490
C          0.19710       -0.67020       -1.34730
H          0.80090        1.95100       -0.57480
H         -0.96320        1.88880       -0.42910
H          0.04230        1.91770        1.02280
H         -0.97550       -0.20210        1.97620
H         -1.17000       -1.67780        0.93030
H          1.55190       -0.36170        1.68820
H          2.01140       -2.03370       -1.75730
H         -0.36810       -2.43090       -2.58370
H         -0.92040       -2.57900       -0.85620
H          0.27110       -0.02050       -2.21160
