12
gdb 1038	7.79662	2.1608	1.70977	3.0669	53.52	-0.2156	0.0162	0.2318	695.4697	0.090007	-360.518768	-360.512366	-360.511421	-360.549979	22.015
C          0.04660        1.42920        0.05910
N          0.24940       -0.00730        0.08840
C          0.66480       -0.59650       -0.93070
O          0.98450       -0.06540       -2.16650
C          1.39540       -1.12170       -2.95740
C          1.33210       -2.24120       -2.24730
O          0.87990       -1.95030       -0.97740
H          0.66060        1.89680        0.83710
H          0.28630        1.90080       -0.90150
H         -0.99850        1.65160        0.30270
H          1.68790       -0.89830       -3.96780
H          1.55430       -3.27030       -2.46520
