18
gdb 18283	2.84558	2.21909	1.93533	1.7821	71.87	-0.228	0.0199	0.2479	810.5962	0.155909	-347.800146	-347.793101	-347.792157	-347.831065	28.038
O         -0.26440        1.56120        0.20590
C         -0.08750        0.18200        0.06690
C         -0.35640       -0.79190        1.18860
C         -0.90090       -0.28390        2.51280
C         -2.21990        0.43430        2.41210
C         -2.99560        0.44420        1.32590
C         -2.66900       -0.26110        0.03690
C         -1.24410       -0.78050       -0.05460
H         -1.03880        1.71760        0.76030
H          0.78230       -0.00150       -0.55590
H          0.34060       -1.61970        1.28210
H         -1.02100       -1.13150        3.20230
H         -0.16300        0.37530        2.99220
H         -2.55110        0.95470        3.30790
H         -3.94580        0.97260        1.35480
H         -3.36750       -1.10130       -0.08360
H         -2.87710        0.41020       -0.80850
H         -1.11360       -1.60100       -0.75430
