19
gdb 5602	3.22115	1.8267	1.28428	2.0015	78.83	-0.1913	0.0473	0.2386	1001.2727	0.166274	-327.969196	-327.960695	-327.959751	-328.00291	30.888
C         -0.21870        1.48530        0.01000
C          0.06410       -0.02930        0.01320
C          0.78450       -0.52410       -1.20300
C          2.12920       -0.77000       -1.39140
C          2.31640       -1.19160       -2.73480
C          1.07860       -1.19330       -3.33010
N          0.14790       -0.78750       -2.40130
C         -1.27240       -0.67970       -2.65780
H          0.71440        2.04920       -0.07900
H         -0.86000        1.77550       -0.82860
H         -0.71940        1.79160        0.93450
H          0.67960       -0.27330        0.88550
H         -0.87980       -0.57310        0.15180
H          2.89130       -0.66030       -0.63380
H          3.24650       -1.46810       -3.20710
H          0.77050       -1.45260       -4.33090
H         -1.85140       -1.25840       -1.93090
H         -1.61600        0.36000       -2.62370
H         -1.48160       -1.07750       -3.65230
