15
gdb 13150	3.87368	1.60326	1.16369	5.9464	69.43	-0.2444	-0.0373	0.2071	983.7124	0.119863	-358.836264	-358.828493	-358.827549	-358.869096	27.008
N         -0.06270        1.33910       -0.11860
C          0.07270        0.06560       -0.12960
C         -1.13240       -0.75200       -0.17680
N         -2.06290       -1.43660       -0.20190
N          1.21970       -0.67360       -0.12890
C          2.56990       -0.22140        0.21880
C          2.95360       -1.70590        0.47650
C          1.46090       -2.07760        0.24880
H          0.84820        1.80090       -0.08250
H          3.09790        0.28430       -0.59650
H          2.59220        0.42220        1.10820
H          3.63030       -2.12100       -0.27030
H          3.34070       -1.92020        1.47190
H          0.92200       -2.38710        1.15080
H          1.25440       -2.79430       -0.55080
