17
gdb 14680	3.9125	0.97548	0.84768	2.7315	73.85	-0.2471	0.0201	0.2672	1371.659	0.139172	-363.815224	-363.80593	-363.804986	-363.850255	32.329
C          0.70930        1.29280       -0.68190
C         -0.07290       -0.00200       -0.43750
N          0.58580       -1.27600       -0.67320
C          1.77550       -1.32110       -1.06660
O          2.37020       -2.52840       -1.25990
C          3.71330       -2.48170       -1.74000
C          3.81680       -2.07020       -3.13810
C          3.89520       -1.72390       -4.28580
H          1.59360        1.36370       -0.03930
H          1.03630        1.38200       -1.72330
H          0.07010        2.15280       -0.46040
H         -0.43200       -0.01740        0.60020
H         -0.98200        0.00320       -1.05340
H          2.42920       -0.46710       -1.27930
H          4.32370       -1.82120       -1.10790
H          4.09570       -3.49840       -1.61440
H          3.96530       -1.42410       -5.30240
