15
gdb 15646	3.4388	1.863	1.26849	3.767	63.59	-0.2237	-0.0179	0.2058	930.3352	0.118613	-399.819394	-399.811688	-399.810743	-399.851859	27.588
C          0.05830        1.40990        0.05940
O         -0.17630        0.02970       -0.11120
C          0.59490       -0.55150       -1.13650
C          2.04590       -0.84410       -0.81810
C          2.25790       -2.15230       -0.98450
N          1.09240       -2.82540       -1.38330
C          0.01180       -1.96310       -1.43810
O         -1.13150       -2.25630       -1.67570
H          1.08590        1.62190        0.38970
H         -0.13010        1.96910       -0.87040
H         -0.63470        1.75780        0.82870
H          0.50760        0.04860       -2.06020
H          2.78930       -0.11100       -0.54680
H          3.17480       -2.71470       -0.87430
H          0.98910       -3.82400       -1.45260
