16
gdb 17727	4.43102	2.54723	2.06349	2.1211	67.06	-0.2286	0.0753	0.3039	689.8634	0.132493	-346.494962	-346.489574	-346.488629	-346.524028	23.16
C         -0.01190        1.56570       -0.00130
C          1.55220        1.81190       -0.09710
C          1.90440        0.34490       -0.07130
O          2.99790       -0.60730       -0.10340
C          1.73660       -1.42090       -0.00700
C          1.04560       -0.43490        0.96390
C         -0.12210        0.00230        0.05350
C          0.93750       -0.49450       -0.95340
H         -0.43590        2.03170        0.89290
H         -0.53530        1.97690       -0.86930
H          1.84220        2.32040       -1.01990
H          1.94220        2.37560        0.75410
H          1.87200       -2.50080        0.01890
H          1.15860       -0.37340        2.04590
H         -1.12430       -0.42060        0.12320
H          0.92810       -0.50060       -2.04290
