18
gdb 12888	2.5026	2.34431	1.69173	1.4155	67.07	-0.2296	0.0731	0.3027	859.2919	0.153631	-384.922111	-384.914298	-384.913354	-384.953881	29.858
C         -0.06240        1.54140       -0.01410
C          0.05130        0.03830        0.08100
C          1.35790       -0.70030       -0.17280
O          2.52640        0.07750       -0.15620
C          2.98270        0.16680        1.20080
C          1.72690        0.07300        2.09160
C          0.74080       -0.69710        1.20350
O          0.04450       -1.78250        1.73700
H          0.90260        2.02580        0.15270
H         -0.40310        1.83400       -1.01250
H         -0.78030        1.93640        0.71270
H         -0.81500       -0.51510       -0.27470
H          1.38910       -1.57640       -0.81440
H          3.67210       -0.66390        1.41720
H          3.53410        1.10540        1.30280
H          1.91430       -0.48540        3.01300
H          1.35090        1.06070        2.37530
H          0.68310       -2.46850        1.96370
