16
gdb 8468	2.95805	2.12384	1.58675	1.8755	67.09	-0.2376	0.0227	0.2602	857.4186	0.130352	-379.895787	-379.888024	-379.887079	-379.927412	29.535
C         -0.14710        1.48130        0.08230
C          0.03650        0.00450        0.05680
C          1.19020       -0.80570       -0.41880
C          0.67350       -0.99910        1.01330
N          1.52580       -0.81160        2.12730
C         -0.64850       -1.70040        0.92450
N         -1.18990       -2.65020        1.53860
O         -1.16180       -0.83290       -0.03870
H          0.79720        1.96480        0.34770
H         -0.46170        1.85820       -0.89690
H         -0.90440        1.76490        0.81920
H          1.04750       -1.57560       -1.17070
H          2.14520       -0.28920       -0.44600
H          0.98650       -0.74520        2.98490
H          2.16150       -1.59630        2.23400
H         -2.15390       -2.78980        1.23080
