19
gdb 2153	3.35545	2.79855	1.64619	0.2568	73.44	-0.2239	0.0359	0.2598	813.6284	0.172154	-273.8121	-273.804551	-273.803607	-273.843351	28.522
C         -0.05660        1.57450       -0.02060
C          0.03370        0.04490        0.03490
C          0.75520       -0.57430       -1.19060
C          1.52160       -1.80620       -0.65150
C          1.62220       -1.51240        0.82490
C          0.82280       -0.51590        1.21130
C          0.62380       -0.01710        2.60910
H          0.94260        2.02440       -0.04640
H         -0.59220        1.89900       -0.91910
H         -0.58800        1.98310        0.84510
H         -0.99570       -0.34480        0.09790
H          0.06920       -0.81690       -2.00690
H          1.47340        0.15650       -1.58040
H          0.96730       -2.74030       -0.82510
H          2.49690       -1.93880       -1.13430
H          2.24650       -2.09390        1.49650
H          1.23430       -0.57510        3.32430
H          0.88040        1.04530        2.70200
H         -0.42660       -0.10900        2.91710
