12
gdb 5448	3.7435	1.93508	1.27567	5.1043	63.22	-0.2148	0.0073	0.2221	860.2287	0.085915	-377.577465	-377.570723	-377.569779	-377.60834	25.185
O          0.09580        1.30730        0.12780
C          0.05720       -0.02710       -0.01050
C          0.02810       -0.84640       -1.13110
C         -0.00790       -2.20070       -0.64430
C          0.00080       -2.14660        0.71760
N          0.04090       -0.80830        1.09440
C          0.03510       -0.35400       -2.45150
N          0.04260        0.10850       -3.51620
H          0.10230        1.70680       -0.75140
H         -0.03630       -3.08830       -1.25490
H         -0.01740       -2.92470        1.46130
H          0.05600       -0.45140        2.03460
