16
gdb 19920	4.52887	1.55314	1.40092	2.8199	63.15	-0.2316	0.0521	0.2837	904.3773	0.129869	-383.639283	-383.632166	-383.631222	-383.671355	27.224
O          0.06970        1.42980        0.32710
C          0.15630        0.06230       -0.06660
C         -1.23710       -0.57300       -0.11930
C         -1.89920       -1.32820       -1.24430
C         -0.96910       -2.40170       -1.89300
O          0.32310       -2.36490       -1.26330
C         -0.75370       -3.04790       -0.60530
C         -1.66000       -2.00560        0.11170
H         -0.29580        1.92290       -0.41390
H          0.67990       -0.04340       -1.02010
H          0.76640       -0.42720        0.69710
H         -1.95040        0.09300        0.36600
H         -2.84390       -1.03620       -1.68540
H         -1.02470       -2.79370       -2.90100
H         -0.59980       -4.08380       -0.32960
H         -2.39500       -2.28110        0.85710
