13
gdb 20496	9.19412	1.01572	0.91993	3.5934	75.18	-0.2383	-0.0377	0.2006	1207.1137	0.09532	-361.438662	-361.431204	-361.430259	-361.473714	25.364
C         -0.08610        1.45600        0.01060
C         -0.00120        0.00590        0.00260
C          0.06570       -1.19840       -0.00400
C          0.14610       -2.60210       -0.01170
C          1.20100       -3.47320       -0.02230
C          0.58160       -4.74570       -0.02520
N         -0.72760       -4.66040       -0.01720
O         -1.01390       -3.30580       -0.00850
H          0.91150        1.90760        0.00330
H         -0.62830        1.82340       -0.86770
H         -0.61140        1.81470        0.90250
H          2.24960       -3.23070       -0.02710
H          1.04350       -5.72290       -0.03300
