15
gdb 14118	4.12997	1.77143	1.39409	2.3369	61.76	-0.2506	0.0076	0.2582	877.7635	0.118777	-399.798035	-399.790674	-399.789729	-399.82969	27.655
N          0.43290        0.32140       -1.03600
C         -0.03090        0.19210        0.23660
O          0.55220        0.58120        1.23120
C         -1.33900       -0.52380        0.33660
C         -2.29580       -0.56640        1.53160
C         -2.70950       -2.01720        1.09640
C         -1.72040       -1.89930       -0.06950
O         -2.10540       -0.76880       -0.85660
H          1.27840        0.84620       -1.18660
H         -0.17850        0.11740       -1.80870
H         -1.75770       -0.54380        2.47950
H         -3.07550        0.19770        1.52650
H         -2.42020       -2.77430        1.82790
H         -3.74930       -2.17070        0.80020
H         -1.13440       -2.66640       -0.56310
