12
gdb 3853	3.8287	3.46537	1.84166	3.9564	52.4	-0.2116	0.0146	0.2262	638.4912	0.092885	-352.864008	-352.85753	-352.856586	-352.894137	23.565
N          0.11420        1.43630        0.07890
C          0.01430        0.05340        0.01120
C         -1.09510       -0.76970       -0.00010
N         -2.43620       -0.32260       -0.02880
N         -0.67160       -2.06610        0.00320
N          0.62540       -2.10530        0.00890
N          1.05480       -0.80920        0.03030
H          0.76930        1.83700       -0.58210
H         -0.80480        1.84410       -0.05730
H         -2.89370       -0.47160        0.86660
H         -2.96900       -0.84830       -0.71500
H          2.04170       -0.61510        0.07380
