14
gdb 2284	7.7071	1.43215	1.39873	2.7698	55.39	-0.2564	0.0197	0.2761	858.6884	0.113895	-361.710299	-361.703355	-361.702411	-361.742314	23.656
O         -0.06450       -0.11730        0.38960
C         -0.05850        1.06470        0.12610
N          1.05260        1.80070       -0.16900
C          2.37970        1.24970       -0.20340
C          3.26830        1.52820       -1.43910
O          4.34380        1.99260       -0.60070
C          3.50600        1.97480        0.57110
H         -0.97650        1.68400        0.09690
H          0.92960        2.78100       -0.37240
H          2.28670        0.19300        0.04240
H          3.55780        0.66750       -2.05150
H          2.87940        2.32140       -2.09470
H          3.23390        2.98760        0.90350
H          3.96660        1.43570        1.40580
