15
gdb 9712	3.30637	1.81839	1.64894	4.3967	66.86	-0.2658	-0.0136	0.2522	851.2043	0.118359	-362.678233	-362.670705	-362.669761	-362.71006	27.627
C          0.03390        1.50600       -0.06630
C         -0.03230       -0.02370        0.02310
O          0.64200       -0.59170       -1.10000
C          1.55170       -1.60880       -0.67350
C          1.57570       -1.50170        0.82380
C          0.67890       -0.61290        1.22820
C         -1.45580       -0.46050        0.01340
N         -2.56140       -0.79690        0.02050
H          1.08020        1.81800       -0.03180
H         -0.41010        1.84400       -1.00550
H         -0.50880        1.96640        0.76390
H          1.20810       -2.59880       -1.01070
H          2.52990       -1.42240       -1.13640
H          2.23220       -2.09120        1.45070
H          0.43250       -0.32510        2.24100
