16
gdb 13951	5.10889	1.34245	1.24418	2.0287	70.	-0.2523	0.0471	0.2994	999.3936	0.128948	-346.531813	-346.524217	-346.523273	-346.563946	28.633
C         -0.04030       -1.19440       -0.29110
C         -0.05190       -0.00550       -0.11960
C         -0.04280        1.43810        0.10510
C          1.34940        2.00040        0.21320
C          2.41690        1.72130        1.28650
C          2.98550        3.16170        1.02500
C          1.89030        3.34920       -0.03350
O          2.05440        2.29620       -0.99710
H         -0.03580       -2.24380       -0.45260
H         -0.56050        1.95070       -0.71410
H         -0.59550        1.66730        1.02580
H          2.00280        1.61060        2.29160
H          3.07510        0.87860        1.06690
H          2.87140        3.82150        1.88830
H          4.00750        3.22810        0.64520
H          1.41030        4.25880       -0.37770
