12
gdb 14593	5.69753	0.90364	0.78368	1.9588	60.27	-0.3011	-0.0401	0.2609	1309.3023	0.082018	-414.681215	-414.6732	-414.672256	-414.714584	26.299
O         -0.19120        0.21250        0.09560
C          0.24430        1.25460        0.46010
O          0.84970        2.12410       -0.41000
C          1.32180        3.29940        0.09020
N          1.87930        4.10530       -0.69460
C          2.39310        5.36670       -0.19310
C          2.21880        5.62010        1.24770
N          2.05220        5.76000        2.38270
H          0.21570        1.63460        1.49630
H          1.16800        3.44040        1.16590
H          3.46180        5.42350       -0.43090
H          1.91570        6.18070       -0.75110
