14
gdb 14581	14.4893	0.65679	0.63581	1.4805	63.93	-0.3054	-0.0066	0.2988	1599.1345	0.105994	-378.731013	-378.722394	-378.72145	-378.765501	28.172
N         -0.04490       -1.11910       -0.00390
C         -0.01790        0.03570        0.00180
C          0.04550        1.49370        0.00900
C          1.49270        1.99710       -0.00210
O          1.42570        3.40850        0.00620
C          2.69830        4.01120       -0.00260
C          2.53750        5.46740        0.00700
N          2.44180        6.61760        0.01430
H         -0.48280        1.88750       -0.86520
H         -0.46610        1.87800        0.89730
H          2.03440        1.62290        0.87980
H          2.01740        1.63250       -0.89800
H          3.29160        3.71520        0.87750
H          3.27480        3.72500       -0.89680
