17
gdb 20275	5.31431	2.11736	2.043	1.5368	70.6	-0.2204	0.0921	0.3125	726.6648	0.145734	-326.637322	-326.631971	-326.631027	-326.666315	23.381
C         -0.00130        1.52030        0.05550
C          1.31890        0.79430       -0.02230
C          0.01920        0.01250        0.00590
C          0.08170       -0.62910       -1.36510
C          0.64330        0.35910       -2.42380
C          1.35440       -0.84550       -3.04330
N          1.55280       -1.12170       -1.55480
C          1.81250        0.41200       -1.40270
H         -0.24860        1.96590        1.01360
H         -0.36020        2.08610       -0.79750
H          2.00720        0.81290        0.81320
H         -0.29280       -0.57060        0.86320
H         -0.67930       -1.35950       -1.64570
H          0.13200        1.19100       -2.92290
H          0.74500       -1.59800       -3.55250
H          2.28790       -0.66990       -3.58600
H          2.80490        0.73620       -1.72130
