17
gdb 3102	3.94643	1.96812	1.69306	2.3714	59.94	-0.2337	0.0454	0.2792	814.7698	0.146941	-346.830674	-346.822573	-346.821629	-346.862915	29.493
C         -0.31860        1.36900        0.07980
C          0.25050       -0.04260       -0.11080
C          0.88480       -0.60220        1.14490
C          0.05260       -1.27300        2.22780
O         -1.30210       -1.55850        1.98980
C          0.98110       -2.09970        1.37820
O          0.40260       -2.98170        0.46750
H          0.45790        2.07100        0.40260
H         -0.74970        1.75230       -0.85030
H         -1.10630        1.38900        0.84280
H         -0.53290       -0.72140       -0.45910
H          1.00390       -0.02710       -0.90780
H          1.72150       -0.01990        1.52670
H          0.29280       -1.08810        3.27310
H         -1.77850       -0.73350        1.85330
H          1.88900       -2.49730        1.82340
H         -0.54500       -2.98190        0.66150
