14
gdb 12292	2.98015	2.28106	1.37925	4.238	63.25	-0.2389	-0.0786	0.1602	855.2242	0.106724	-382.575578	-382.568452	-382.567508	-382.607913	25.742
O         -0.01040        0.00660        0.30790
C         -0.02980        1.19260        0.10010
C         -1.31470        2.00040       -0.00400
C         -1.19410        3.25240       -0.83000
C         -0.04720        3.74150       -1.29610
C          1.30330        3.12110       -1.06060
C          1.30070        1.97670       -0.05830
O          2.26800        1.66050        0.58550
H         -2.10390        1.33600       -0.37480
H         -1.61470        2.25550        1.02550
H         -2.12410        3.77100       -1.04720
H         -0.05610        4.65220       -1.88910
H          1.70190        2.71610       -2.00520
H          2.04430        3.85880       -0.73120
