12
gdb 20646	4.11877	1.88	1.30117	4.7289	60.09	-0.2764	-0.1039	0.1725	863.7057	0.082269	-414.645094	-414.638176	-414.637232	-414.676385	24.801
C          0.01050        1.51210        0.01330
C         -0.05850        0.02010        0.04150
C         -1.16190       -0.72120       -0.16310
C         -1.09560       -2.17170       -0.10850
O         -2.00230       -2.94020       -0.27160
O          0.16900       -2.67280        0.16350
N          1.30940       -1.82860        0.37290
N          1.17320       -0.60550        0.31070
H          0.72500        1.84210       -0.74810
H         -0.96620        1.95020       -0.19830
H          0.37390        1.89090        0.97430
H         -2.12910       -0.28110       -0.37330
