15
gdb 9467	2.71034	1.88417	1.7162	0.9411	62.99	-0.2518	-0.0589	0.1929	851.8872	0.11675	-399.803541	-399.795471	-399.794526	-399.836152	28.581
C          0.01130        1.74030       -0.21570
C          0.05260        0.22840        0.00290
N          1.09940       -0.52230       -0.73040
C          1.61520       -1.17790        0.50580
C          0.72880       -0.24470        1.33030
O          0.61930        0.06600        2.47500
C         -1.33000       -0.38780       -0.12950
O         -1.54920       -1.38960       -0.76300
H          1.00530        2.16670       -0.06540
H         -0.31230        1.97660       -1.23410
H         -0.68010        2.20990        0.49090
H          0.66810       -1.19120       -1.36390
H          1.33220       -2.23140        0.63240
H          2.69390       -1.07820        0.66450
H         -2.13810        0.15310        0.40630
