17
gdb 8231	5.40909	1.17695	1.065	2.3144	65.18	-0.2646	0.058	0.3226	1124.2034	0.142592	-401.037684	-401.029533	-401.028588	-401.071399	29.578
N          0.19360        1.25790       -0.09860
C          0.15360       -0.09590        0.09110
O          1.06290       -0.76750        0.51950
O         -1.07400       -0.57000       -0.24230
C         -1.26850       -1.96930       -0.03520
C         -1.70490       -2.44820        1.36740
C         -2.71480       -3.39490        0.65800
C         -2.58720       -2.50890       -0.61490
H          1.10650        1.67880       -0.08730
H         -0.51750        1.68730       -0.66580
H         -0.38760       -2.50830       -0.38950
H         -0.93960       -2.87950        2.01390
H         -2.21820       -1.64270        1.90060
H         -2.30020       -4.39440        0.50370
H         -3.70740       -3.49470        1.10020
H         -3.34410       -1.71970       -0.62900
H         -2.55690       -2.99350       -1.59310
