13
gdb 16136	4.85573	1.79943	1.54889	2.227	58.4	-0.2535	-0.0343	0.2192	789.3759	0.095746	-398.601837	-398.595476	-398.594531	-398.632415	23.694
O         -0.86580        1.14060       -0.19350
C          0.25310        0.90000        0.19340
C          1.39310        1.83260        0.03690
C          1.13490        3.33310       -0.07020
C          1.67310        2.63180       -1.25920
O          3.08050        2.58560       -1.39660
C          3.53490        1.91030       -0.30530
N          2.69150        1.43350        0.51880
H          0.51760       -0.05550        0.69250
H          0.08450        3.59720       -0.12020
H          1.78100        3.98900        0.50290
H          1.13490        2.52730       -2.19180
H          4.61230        1.82670       -0.24070
