15
gdb 16825	3.5794	2.08926	1.51978	5.0902	61.06	-0.2512	0.0013	0.2525	828.6289	0.120126	-399.817047	-399.810303	-399.809358	-399.847908	25.687
C          0.15320        1.52110       -0.06650
C         -0.01670        0.01890        0.08070
O          0.51860       -0.64270       -1.09290
C          1.30000       -1.71470       -0.78010
O          1.68820       -2.49710       -1.59720
C          1.53240       -1.71480        0.70560
N          2.17350       -0.44020        1.13650
C          0.71980       -0.60990        1.25620
H          1.21490        1.77580       -0.07710
H         -0.30850        1.86680       -0.99450
H         -0.32820        2.03630        0.77110
H         -1.08020       -0.24600        0.13630
H          1.75820       -2.64480        1.21010
H          2.60710       -0.59810        2.04400
H          0.24670       -0.65350        2.23040
