17
gdb 1813	3.84077	2.08703	1.97516	2.2253	59.92	-0.2543	0.0608	0.315	761.9289	0.146589	-346.838572	-346.830649	-346.829705	-346.870101	30.003
C          0.07240        1.45180       -0.25980
C          0.01920       -0.03000        0.13060
O          0.56370       -0.23320        1.42690
C         -1.39070       -0.59510        0.07660
O         -2.22550       -0.05310        1.07840
C         -2.01710       -1.01220       -1.22570
C         -1.61310       -2.04850       -0.19120
H          1.09620        1.82270       -0.16840
H         -0.26720        1.60710       -1.28940
H         -0.55600        2.05360        0.40740
H          0.65030       -0.60230       -0.56020
H         -0.15410       -0.03890        2.04340
H         -2.50920        0.82140        0.78930
H         -3.07780       -0.82210       -1.34780
H         -1.43170       -0.92920       -2.13570
H         -0.74830       -2.67230       -0.38730
H         -2.40990       -2.52770        0.36510
