13
gdb 7032	8.26762	1.00244	0.89404	2.5372	61.6	-0.2676	-0.0258	0.2418	1201.7216	0.095362	-431.952583	-431.944496	-431.943552	-431.98599	27.078
N          0.32570        1.23630       -0.11890
C          0.01870        0.01380       -0.01780
N         -1.29120       -0.46210        0.03100
C         -2.45990        0.26460       -0.02190
O         -2.59730        1.44820       -0.11800
O         -3.49150       -0.65710        0.05910
C         -4.77120       -0.16670        0.02770
N         -5.71790       -0.99110        0.10050
H          1.33900        1.33730       -0.13510
H          0.72260       -0.82460        0.04460
H         -1.41650       -1.45880        0.11240
H         -4.80240        0.91960       -0.06000
H         -6.60750       -0.49560        0.06630
