22
gdb 6173	3.18291	1.31794	1.17761	1.3312	78.75	-0.2455	0.0765	0.3219	1164.3905	0.197567	-350.201922	-350.192088	-350.191144	-350.235806	37.147
C         -1.56640        0.83770       -0.68540
C         -1.25910       -0.52110       -1.33280
C         -2.03210       -0.69340       -2.64910
C          0.23500       -0.68040       -1.55290
C          1.17610       -1.07740       -0.42730
C          0.95340       -1.99830       -1.60700
C          0.25600       -3.32780       -1.42480
O          1.96560       -2.02800       -2.58650
H         -1.02700        0.95810        0.25930
H         -1.26810        1.66010       -1.34640
H         -2.63720        0.94610       -0.48310
H         -1.59340       -1.30230       -0.63710
H         -1.72870        0.06620       -3.37920
H         -1.84670       -1.67440       -3.09660
H         -3.11100       -0.58970       -2.49140
H          0.65420        0.04720       -2.24520
H          2.13240       -0.57050       -0.35990
H          0.73680       -1.35390        0.52720
H          0.96750       -4.08580       -1.07310
H         -0.54950       -3.27220       -0.68840
H         -0.16250       -3.67800       -2.37390
H          2.66640       -2.60670       -2.26470
