18
gdb 16076	3.12266	1.80822	1.44394	2.0825	67.82	-0.231	0.0737	0.3047	940.8085	0.152169	-384.879278	-384.870979	-384.870035	-384.912005	30.271
C         -0.35560        1.29120       -0.01870
O          0.38850        0.09480        0.15940
C          0.79820       -0.48080       -1.01940
C          0.01930       -1.56110       -1.77520
O          1.25510       -2.26140       -2.08710
C          2.00670       -1.33400       -1.29470
C          1.93320        0.05960       -1.87640
C          1.87220        0.34320       -3.36030
H          0.22980        2.05070       -0.55410
H         -1.28790        1.11210       -0.57240
H         -0.60200        1.66270        0.97820
H         -0.60690       -2.16280       -1.10720
H         -0.54260       -1.28250       -2.67380
H          2.80120       -1.72460       -0.66990
H          2.53300        0.75220       -1.28690
H          1.41250       -0.49270       -3.89350
H          1.29970        1.25120       -3.57740
H          2.87970        0.47780       -3.76820
