18
gdb 9754	3.40772	1.69593	1.54341	2.5514	69.13	-0.2349	0.0096	0.2445	913.9491	0.153274	-384.943735	-384.935663	-384.934718	-384.976027	30.453
C          0.03860        1.50660       -0.04340
C         -0.09720       -0.01380        0.07630
C         -1.58060       -0.44170        0.09880
O         -2.22380       -0.10930       -1.11390
O          0.48350       -0.62550       -1.10320
C          1.47580       -1.58330       -0.73970
C          1.56830       -1.49740        0.75780
C          0.69050       -0.61200        1.21300
H          1.08560        1.78530       -0.18430
H         -0.54730        1.86300       -0.89380
H         -0.33650        1.99790        0.86070
H         -1.63010       -1.52350        0.29880
H         -2.11780        0.07550        0.90160
H         -1.65030       -0.45910       -1.80810
H          1.18260       -2.58820       -1.08310
H          2.42580       -1.33770       -1.23820
H          2.26180       -2.08850        1.34270
H          0.52360       -0.33430        2.24620
