14
gdb 20339	5.22559	2.09798	1.51086	2.4306	69.79	-0.2077	-0.0158	0.192	780.8801	0.111409	-341.60888	-341.603205	-341.602261	-341.638391	22.782
C         -0.05560        1.53640        0.01080
C          1.42600        1.89040       -0.00150
C          2.20240        0.78610       -0.01490
C          1.31150       -0.36260       -0.01250
C         -0.01430        0.03480        0.00240
C         -0.74720       -1.16320        0.00310
N          0.06410       -2.22730       -0.01050
N          1.32170       -1.71270       -0.01980
H         -0.55320        1.95550        0.89540
H         -0.57010        1.96490       -0.85950
H          1.78410        2.91200        0.00060
H          3.28370        0.75970       -0.02540
H         -1.81540       -1.32360        0.01250
H          2.10080       -2.34770       -0.03070
