16
gdb 7683	3.99024	1.5623	1.51715	2.5659	65.96	-0.2377	-0.011	0.2268	891.697	0.128798	-383.727994	-383.720416	-383.719472	-383.75942	29.32
C         -0.03710        1.55330       -0.00050
C          0.06130        0.04620       -0.07130
O         -1.07490       -0.60840        0.42570
C          0.67230       -0.73370       -1.17080
C          1.88460       -0.02360       -1.78600
C          2.54690       -0.07360       -0.37900
O          3.65370        0.17780        0.00840
C          1.35860       -0.73720        0.23680
H          0.84980        2.04950       -0.39930
H         -0.91430        1.89860       -0.55690
H         -0.14710        1.87510        1.04210
H         -1.21470       -0.31580        1.33330
H          0.13850       -1.56190       -1.61780
H          2.44520       -0.66620       -2.47140
H          1.73210        0.94980       -2.25910
H          1.34580       -1.47890        1.02570
