18
gdb 11301	4.95094	1.2613	1.14507	2.6723	68.35	-0.2447	-0.0211	0.2235	1071.109	0.153402	-384.95869	-384.950482	-384.949538	-384.992464	29.305
C          0.13770        1.38280        0.27910
C         -0.10460       -0.04680       -0.20100
C          0.85290       -0.48560       -1.34230
C          1.61480       -1.71530       -0.77540
C          1.38330       -1.54650        0.74080
O          0.09040       -0.98800        0.86250
C          1.00370       -3.00930       -1.26390
O          1.57800       -3.83220       -1.92990
H          1.17490        1.51780        0.60410
H         -0.05980        2.09740       -0.52710
H         -0.51990        1.61970        1.11970
H         -1.15230       -0.15130       -0.50350
H          0.30840       -0.72580       -2.25970
H          1.56190        0.30950       -1.58790
H          2.67250       -1.71560       -1.04720
H          1.39410       -2.48850        1.29820
H          2.15880       -0.89080        1.16710
H         -0.05660       -3.15740       -0.95240
