15
gdb 3337	4.12908	3.37786	2.25856	1.7624	61.07	-0.2386	0.0027	0.2413	617.9869	0.127322	-308.51439	-308.508741	-308.507797	-308.54353	22.359
C         -0.01960        1.48870       -0.10610
C          1.39290        2.07980        0.08630
C          2.11110        1.47760        1.27320
O          1.33530        1.19930        2.43490
C          1.80890        0.08200        1.64100
C          0.80090       -0.65760        0.84210
C         -0.03860       -0.01190        0.03000
H         -0.68970        1.92230        0.64650
H         -0.41580        1.79040       -1.08120
H          2.00610        1.88420       -0.80350
H          1.32980        3.16840        0.19300
H          3.11060        1.86510        1.47700
H          2.57300       -0.50700        2.14410
H          0.77290       -1.73860        0.93810
H         -0.78030       -0.56530       -0.53940
