17
gdb 20181	3.3494	2.67983	2.03349	0.981	66.54	-0.2193	0.0863	0.3056	725.9958	0.145552	-363.809371	-363.803475	-363.802531	-363.839059	24.396
C          0.01260        1.61790        0.05980
C          1.54450        1.57580        0.14240
C          1.53690        0.06590        0.19390
C          0.02030        0.05420       -0.08950
O         -0.32990       -0.48580       -1.34830
C          0.20760        0.26390       -2.42870
C          1.70960        0.57060       -2.25540
N          2.18880        0.77310       -0.88400
H         -0.42510        1.89820        1.02170
H         -0.45180        2.22400       -0.72040
H          2.16900        2.27170        0.69130
H          2.10200       -0.63340        0.80140
H         -0.59190       -0.46500        0.64900
H          0.05750       -0.34450       -3.32520
H         -0.36690        1.19070       -2.56450
H          2.29420       -0.27360       -2.63880
H          1.97860        1.44760       -2.85400
