15
gdb 1488	7.52643	1.24039	1.13302	1.3133	54.37	-0.257	-0.0282	0.2288	991.1089	0.122703	-382.790027	-382.781886	-382.780942	-382.823001	28.049
O          0.14380        1.40050       -0.03200
C          0.10840       -0.00570        0.03940
C         -1.33570       -0.51280        0.03110
O         -2.02530        0.04050       -1.09440
C         -1.44020       -2.04020        0.05880
C         -2.88450       -2.49540        0.00470
O         -3.32600       -3.26770       -0.80450
H         -0.51770        1.64250       -0.69340
H          0.65530       -0.47110       -0.80140
H          0.61450       -0.30350        0.96440
H         -1.85350       -0.08750        0.89930
H         -1.73180       -0.42600       -1.88670
H         -0.89780       -2.49520       -0.77790
H         -0.99590       -2.41190        0.99280
H         -3.53400       -2.05080        0.79320
