20
gdb 18116	4.07651	1.84879	1.36624	0.3341	80.68	-0.2222	0.028	0.2501	948.1738	0.180625	-311.900317	-311.893418	-311.892474	-311.931335	27.732
C         -0.04020        1.52110        0.03780
C          1.43620        1.99200       -0.00210
C          2.10920        0.93310       -0.89190
C          3.60200        0.57470       -0.75740
C          3.63370       -0.97760       -0.87900
C          2.24050       -1.38090       -0.42940
C          1.41220       -0.33990       -0.45510
C          0.01030       -0.03980        0.00850
H         -0.58310        1.90740        0.90460
H         -0.56320        1.88820       -0.85240
H          1.53820        3.01830       -0.36720
H          1.87230        1.95270        1.00420
H          1.86110        1.15330       -1.94330
H          4.24230        1.07280       -1.49070
H          3.95660        0.86380        0.23910
H          3.82910       -1.29560       -1.91410
H          4.42410       -1.42910       -0.26830
H          1.99070       -2.39260       -0.12730
H         -0.17640       -0.47080        0.99820
H         -0.75690       -0.45110       -0.65730
