18
gdb 13908	3.38906	1.37427	1.18659	3.5572	69.84	-0.2296	0.0289	0.2585	1084.0917	0.152827	-381.132795	-381.123783	-381.122839	-381.166256	32.692
C          0.28400        1.81540       -0.61320
C         -0.03590        0.33990       -0.52380
C          0.82380       -0.68550       -1.20690
N          0.75270       -0.61490        0.25210
C          1.93910       -0.17960        0.97790
C          0.24270       -1.89400       -1.89590
N         -0.51950       -2.67560       -1.08060
O          0.42410       -2.10360       -3.08070
H          1.34870        2.00830       -0.76130
H         -0.25260        2.25500       -1.45980
H         -0.03730        2.34180        0.29240
H         -1.10230        0.12290       -0.47780
H          1.71460       -0.30390       -1.70270
H          2.54780        0.56600        0.44760
H          1.63850        0.24230        1.94210
H          2.56950       -1.05290        1.17050
H         -0.44630       -2.53330       -0.08480
H         -0.86310       -3.54860       -1.44440
