17
gdb 7111	5.89029	0.8657	0.81641	3.8913	67.72	-0.2467	-0.026	0.2207	1405.6316	0.140027	-401.045556	-401.036162	-401.035218	-401.081784	31.595
C         -0.12660        1.39320       -0.33770
C          0.03180        0.02060        0.31900
N         -1.23710       -0.67180        0.49570
C         -1.58550       -1.77110       -0.22680
O         -0.86010       -2.30130       -1.05080
C         -2.96950       -2.34180        0.07990
C         -2.87250       -3.82000        0.42870
O         -3.50500       -4.34130        1.30890
H          0.84810        1.88050       -0.43880
H         -0.56860        1.29750       -1.33350
H         -0.76830        2.05060        0.25930
H          0.64760       -0.63530       -0.29950
H          0.52300        0.11990        1.29450
H         -1.90720       -0.28730        1.14160
H         -3.51650       -1.81990        0.86880
H         -3.54700       -2.27200       -0.85150
H         -2.16300       -4.38390       -0.20990
