19
gdb 17355	4.36414	1.27218	1.09524	2.2253	73.26	-0.2274	0.0851	0.3125	1136.9177	0.164016	-365.007919	-364.999291	-364.998347	-365.041475	31.477
C         -1.42710       -0.86920        2.53980
C         -0.36780       -1.81900        2.04030
O          0.31430       -1.47620        0.83140
C          1.08370       -1.55490        2.04350
C          1.69820       -0.29060        2.54370
C          2.79510       -0.35460        3.55810
N          3.07100        0.10230        2.20680
C          3.88360       -0.74720        1.34650
H         -1.11810        0.17310        2.44490
H         -2.34800       -1.00080        1.96210
H         -1.65950       -1.07380        3.59050
H         -0.65830       -2.87160        2.08950
H          1.73190       -2.43060        2.08710
H          1.02020        0.55790        2.57200
H          2.86180        0.38910        4.34810
H          3.14460       -1.34810        3.84200
H          3.83400       -1.82240        1.57780
H          3.57680       -0.60530        0.30600
H          4.92840       -0.43500        1.44200
