24
gdb 6804	5.80517	0.68053	0.63546	0.917	83.73	-0.2477	0.0839	0.3315	1874.361	0.220922	-351.412762	-351.401913	-351.400969	-351.449417	38.088
C          0.12520        1.56320       -0.01240
C          0.00910        0.04800       -0.01750
O          0.66610       -0.45070       -1.16250
C          0.63340       -1.85910       -1.25890
C          1.35110       -2.26810       -2.53980
C          1.54070       -3.78450       -2.71470
C          0.20730       -4.53720       -2.84130
C          2.43700       -4.07140       -3.92720
H          1.17580        1.86640        0.00910
H         -0.33380        1.98580       -0.91070
H         -0.37620        1.98280        0.86500
H          0.45950       -0.37650        0.89670
H         -1.05140       -0.25880       -0.02130
H          1.12840       -2.31400       -0.38180
H         -0.41080       -2.21300       -1.25530
H          0.80250       -1.86080       -3.39920
H          2.33170       -1.77730       -2.53770
H          2.05750       -4.16280       -1.82030
H          0.37670       -5.60880       -2.99070
H         -0.41870       -4.42510       -1.95100
H         -0.36690       -4.17010       -3.70080
H          3.40810       -3.57440       -3.83210
H          2.61770       -5.14530       -4.04170
H          1.96980       -3.71310       -4.85230
