10
gdb 21755	5.73526	2.22612	1.60366	0.	53.92	-0.2732	-0.0655	0.2077	688.3864	0.062811	-413.399299	-413.394348	-413.393404	-413.428368	18.897
O         -0.00770        1.36660        0.00950
N          1.33190        1.80260       -0.00100
C          2.10760        0.73730       -0.01420
C          1.30620       -0.42900       -0.01280
C          0.02400        0.02760        0.00200
C         -0.77740       -1.13870        0.00340
N         -0.00170       -2.20390       -0.00970
O          1.33790       -1.76800       -0.02030
H          3.17830        0.87180       -0.02380
H         -1.84810       -1.27320        0.01300
