20
gdb 14164	3.2039	2.2138	1.80604	1.6046	73.84	-0.2341	0.0877	0.3217	841.2512	0.178131	-348.984548	-348.977143	-348.976199	-349.01552	30.026
C         -0.13110        1.52640        0.00650
C         -0.02440       -0.00180        0.01550
C         -1.39950       -0.59080        0.33510
C          0.80560       -0.61030       -1.18950
C          2.09790       -0.21420       -0.40400
C          1.19580       -0.61500        0.78350
O          1.03280       -2.03330        0.58470
C          0.76950       -2.10120       -0.84000
H          0.78270        2.04130       -0.29320
H         -0.92220        1.83910       -0.68490
H         -0.40940        1.89480        1.00050
H         -2.08220       -0.47400       -0.51480
H         -1.34350       -1.64800        0.59650
H         -1.84880       -0.06440        1.18470
H          0.62760       -0.32450       -2.22670
H          2.98640       -0.83080       -0.55740
H          2.35600        0.84030       -0.45720
H          1.42120       -0.41890        1.83170
H         -0.19700       -2.58230       -1.02290
H          1.55400       -2.68150       -1.33980
