14
gdb 2900	6.92692	1.87275	1.50799	5.3865	64.89	-0.2072	-0.0281	0.1791	773.9363	0.115229	-324.602888	-324.596471	-324.595526	-324.633298	23.18
O         -0.10280       -0.04330        0.13990
C         -0.02420        1.17290        0.11340
C          1.20240        1.91650        0.01630
C          1.31160        3.26620       -0.04080
N          2.60100        3.69290       -0.20040
C          3.51250        2.55730        0.04780
C          2.59200        1.31770       -0.11450
H         -0.94120        1.80540        0.17460
H          0.50660        3.99120       -0.01140
H          2.86660        4.61740        0.10120
H          4.34820        2.57070       -0.65620
H          3.92280        2.61610        1.06510
H          2.79420        0.54570        0.63140
H          2.72170        0.85060       -1.09800
