15
gdb 21035	3.94623	1.80384	1.25752	3.066	64.55	-0.2123	0.0221	0.2345	939.5422	0.119694	-396.038338	-396.030432	-396.029488	-396.070629	27.979
C          0.09630        1.40060       -0.06570
N          0.07590       -0.03900       -0.01270
N          0.12520       -0.80320       -1.16070
C          0.09010       -2.03420       -0.74750
C          0.12130       -3.22850       -1.63310
N          0.02040       -2.09370        0.62490
C          0.00900       -0.79190        1.14050
O         -0.04580       -0.43240        2.29900
H          1.01650        1.76000       -0.53650
H         -0.76220        1.78200       -0.62700
H          0.04830        1.75710        0.96460
H          0.17550       -2.89800       -2.67120
H          0.99000       -3.86140       -1.41970
H         -0.77670       -3.84350       -1.50620
H         -0.02050       -2.91260        1.20610
