15
gdb 17025	4.25057	1.59563	1.33564	2.4051	65.87	-0.2659	0.0114	0.2773	917.0752	0.118662	-362.605696	-362.598704	-362.59776	-362.636818	26.445
C         -0.02900        1.62470        0.02170
C         -0.01900        0.10940        0.00720
C          1.20310       -0.62960       -0.61040
O          2.03150       -0.19480        0.53260
C          0.75600       -0.64910        1.12300
C          0.85600       -1.91310        0.21010
C         -0.31930       -2.70610       -0.10190
N         -1.25390       -3.34020       -0.35000
H          0.95660        2.01640        0.28030
H         -0.31610        2.01690       -0.95940
H         -0.75690        1.99770        0.74950
H         -0.99280       -0.31700       -0.24870
H          1.63880       -0.57160       -1.60760
H          0.65500       -0.61450        2.20750
H          1.72640       -2.53230        0.42760
