12
gdb 1591	3.64822	2.36884	1.60777	3.6266	51.03	-0.2951	-0.0576	0.2375	739.2555	0.087694	-360.538112	-360.530553	-360.529608	-360.570354	25.565
C         -0.07560        1.44650       -0.00180
C          0.02300       -0.05200        0.05000
O          0.12360       -0.69830        1.06440
C          0.01410       -0.84230       -1.29360
O          0.16980       -2.20390       -1.05530
C         -1.23600       -0.54520       -2.02350
N         -2.21320       -0.28610       -2.58300
H          0.73330        1.85620       -0.61700
H         -1.01760        1.74210       -0.47520
H         -0.01960        1.85720        1.00630
H          0.84730       -0.46090       -1.90550
H          0.12790       -2.29460       -0.08650
