17
gdb 12205	2.93593	1.72475	1.47858	4.2764	67.86	-0.2752	0.0038	0.2791	934.8661	0.141295	-363.863682	-363.855299	-363.854355	-363.897218	30.039
C          0.45170        1.44010       -0.29350
C          0.03320        0.03570        0.09270
O          0.62770       -0.96870       -0.78130
C          1.31380       -1.60370        0.30690
C          2.77410       -1.53250        0.16900
N          3.92480       -1.47190        0.07840
C          0.66390       -0.63940        1.34670
C          1.55680        0.15790        2.28350
H          1.53870        1.55410       -0.29000
H          0.09070        1.66420       -1.30190
H          0.01730        2.17420        0.39350
H         -1.05980       -0.05020        0.06270
H          1.03030       -2.65790        0.41020
H         -0.09210       -1.17580        1.92470
H          2.36560        0.66560        1.75280
H          0.97150        0.91160        2.81980
H          2.01450       -0.49930        3.02950
