14
gdb 16059	3.64121	1.75299	1.51339	3.2681	59.69	-0.2485	-0.0356	0.2129	845.9363	0.105894	-419.628533	-419.621408	-419.620464	-419.659975	26.249
O         -0.00650        1.37270       -0.00140
C          0.00960       -0.01080        0.05210
C         -0.34140       -0.80330        1.27890
C         -1.49510       -0.11390        1.99570
O         -2.26440        0.00160        0.75980
C         -1.29720       -0.77760        0.06070
C         -1.68990       -1.81680       -0.89890
O         -2.82120       -2.05700       -1.23850
H         -0.93340        1.64080        0.07490
H          0.80210       -0.44210       -0.55340
H          0.25420       -1.62280        1.65910
H         -2.02250       -0.75550        2.70660
H         -1.28510        0.86270        2.44330
H         -0.81470       -2.37400       -1.30660
