17
gdb 11871	4.70383	1.55722	1.34929	3.1789	69.71	-0.2543	0.0316	0.2858	938.1699	0.143801	-363.871628	-363.864604	-363.86366	-363.902946	27.208
N         -0.23860        1.05200        0.78370
C         -0.09280       -0.05720        0.20060
C         -1.10830       -0.72910       -0.70190
C         -0.61520       -2.16490       -0.74070
C         -1.39680       -3.28730       -0.10850
C         -1.19550       -3.24080       -1.60700
C          0.88000       -2.02790       -0.50670
O          1.02680       -0.84110        0.29090
H          0.59950        1.28630        1.31910
H         -2.12090       -0.60270       -0.31690
H         -1.06720       -0.26060       -1.69370
H         -0.85360       -4.03850        0.45580
H         -2.38400       -3.06300        0.28170
H         -2.04570       -2.99000       -2.23260
H         -0.51690       -3.96200       -2.05240
H          1.32040       -2.86520        0.04160
H          1.43350       -1.89180       -1.44590
