16
gdb 19625	4.8065	1.99054	1.82669	2.5485	67.69	-0.2362	0.0727	0.309	765.2291	0.132874	-342.686697	-342.680748	-342.679803	-342.716468	24.296
C         -0.09280        1.50350       -0.05430
N          1.16210        0.72000        0.08090
C         -0.11600        0.02990        0.00390
C         -0.53350       -0.98620        1.02720
C         -1.70760       -1.72760        0.46890
C         -2.03970       -1.16820       -0.90600
C         -0.51020       -1.01600       -1.03280
N         -0.31820       -2.12750        0.06000
H         -0.35220        2.09820        0.81740
H         -0.31040        1.98060       -1.00750
H          1.64740        0.67720       -0.81250
H         -0.22250       -1.05630        2.06260
H         -2.31590       -2.37960        1.08600
H         -2.42090       -1.95600       -1.56070
H         -2.66070       -0.27110       -0.99620
H          0.00780       -1.09660       -1.98800
