16
gdb 16452	4.22583	1.94073	1.72617	1.7125	63.27	-0.2447	0.0673	0.312	788.1584	0.130802	-383.667555	-383.660982	-383.660037	-383.697888	26.363
O         -0.17760        1.42160        0.00780
C         -0.07250        0.04300        0.02650
C         -0.33070       -0.80320       -1.18420
C         -1.21350       -0.97980        0.03200
C         -0.46140       -1.77720        1.11660
O          0.46930       -2.79870        0.66480
C          1.59530       -1.89170        0.79790
C          0.65880       -0.72250        1.16010
H          0.47430        1.76990       -0.61040
H         -0.81150       -0.25900       -1.99130
H          0.32820       -1.60490       -1.50000
H         -2.28590       -0.83660       -0.01720
H         -1.04270       -2.09160        1.98580
H          2.25710       -2.20540        1.61450
H          2.17790       -1.80980       -0.12770
H          0.86110       -0.12200        2.04500
