10
gdb 197	9.35884	3.9125	2.76625	1.8589	43.86	-0.2088	0.0284	0.2373	444.8744	0.075481	-301.381127	-301.376265	-301.375321	-301.409022	17.958
N          0.05120        1.33950        0.16020
C         -0.04710       -0.02460        0.04720
N         -1.12400       -0.74790        0.01030
C         -0.63630       -2.05440       -0.02080
C          0.71130       -2.04120       -0.00910
O          1.11320       -0.71660        0.03710
H          0.87950        1.73990       -0.25520
H         -0.80030        1.81460       -0.10000
H         -1.30170       -2.90260       -0.05390
H          1.49580       -2.77610       -0.02970
