22
gdb 9746	3.55723	1.47542	1.39903	0.1426	82.17	-0.2342	0.0313	0.2656	1042.6584	0.200566	-313.092561	-313.084009	-313.083065	-313.125078	33.389
C         -0.20750        1.69930       -0.05870
C         -0.18650        0.16650       -0.04500
C          0.74080       -0.50070       -1.07930
C          0.33460       -0.12940       -2.51690
C          2.24840       -0.14470       -0.86290
C          2.97230       -1.44580       -1.10420
C          2.13670       -2.48140       -1.14610
C          0.70460       -2.05810       -0.94050
H          0.79280        2.11740        0.09740
H         -0.58870        2.09460       -1.00500
H         -0.85180        2.08270        0.73890
H          0.11400       -0.17540        0.95420
H         -1.20820       -0.20770       -0.19690
H          0.44590        0.94230       -2.70800
H          0.96170       -0.66110       -3.24030
H         -0.70890       -0.40080       -2.71350
H          2.58160        0.65820       -1.53180
H          2.43590        0.21510        0.15950
H          4.05150       -1.50560       -1.19760
H          2.42780       -3.51800       -1.27940
H          0.34880       -2.36520        0.05390
H          0.01530       -2.51360       -1.66270
