17
gdb 17466	4.3041	1.97986	1.67717	2.504	66.32	-0.2357	0.0665	0.3022	812.6329	0.143715	-363.832216	-363.825601	-363.824657	-363.862535	26.645
C          0.08600        1.49820       -0.14200
C         -0.04360        0.00900        0.06140
C         -1.39130       -0.65740       -0.26210
C         -1.49930       -1.86880        0.65320
O         -0.47620       -2.86150        0.47330
C         -0.32530       -1.90820        1.53930
C          0.59120       -0.75020        1.18770
N          1.17990       -0.77600       -0.15910
H          1.08540        1.83210        0.14720
H         -0.06200        1.76330       -1.19540
H         -0.65510        2.04690        0.44990
H         -2.21130        0.03430       -0.03500
H         -1.48200       -0.92860       -1.32030
H         -2.47430       -2.26740        0.92370
H         -0.33220       -2.32390        2.54200
H          1.18600       -0.29310        1.97200
H          0.95850       -1.67810       -0.57910
