20
gdb 7498	3.85267	1.26959	1.166	1.3231	71.6	-0.243	0.0777	0.3208	1134.0414	0.175193	-386.11591	-386.106727	-386.105783	-386.150145	32.632
C          0.69070        1.44240        0.00920
O          0.92260        0.06070        0.14350
C         -0.06000       -0.59260        0.91660
C          0.28440       -2.07810        0.99470
C          0.26820       -2.74370       -0.36980
C          1.48300       -2.40580        1.92030
C          0.41670       -2.99080        2.86510
O         -0.64060       -2.71800        1.92010
H          0.68080        1.95140        0.98610
H          1.50230        1.85450       -0.59550
H         -0.26780        1.64840       -0.49280
H         -0.10160       -0.17190        1.93480
H         -1.06190       -0.47250        0.47030
H          0.97720       -2.24690       -1.03780
H          0.53280       -3.80140       -0.28690
H         -0.73140       -2.67390       -0.81200
H          2.18330       -3.13440        1.50870
H          2.03900       -1.54220        2.28740
H          0.49890       -4.06150        3.08570
H          0.27150       -2.44910        3.80830
