18
gdb 17669	3.86537	1.48573	1.28898	1.2213	67.85	-0.2549	0.0783	0.3332	992.7335	0.152037	-384.898957	-384.890535	-384.88959	-384.931534	31.445
C         -0.08220        1.74690        0.30810
C         -0.06500        0.25930        0.01590
C          1.22560       -0.39140       -0.44550
C          0.69020       -0.65910        0.94110
O          1.30540       -0.08070        2.05590
C         -1.35440       -0.26450       -0.54840
C         -1.57180       -0.45480       -1.98880
O         -1.34280       -1.57220       -1.12380
H          0.82240        2.04570        0.83960
H         -0.15750        2.32820       -0.61740
H         -0.93780        2.01130        0.94050
H          1.16450       -1.19510       -1.17060
H          2.09570        0.25230       -0.52310
H          0.25370       -1.64210        1.11530
H          2.14290       -0.53360        2.19850
H         -2.23310       -0.06500        0.06930
H         -2.57640       -0.38640       -2.40300
H         -0.76170       -0.23300       -2.68160
