22
gdb 10732	2.94902	1.64068	1.28001	0.8609	77.85	-0.2291	0.0839	0.313	1077.3045	0.197901	-350.182074	-350.172437	-350.171493	-350.216218	36.053
C         -0.00210        1.28740        0.24850
O          0.43430       -0.03890        0.08050
C          0.73010       -0.50630       -1.21910
C          0.32140        0.26210       -2.44860
C          1.78290        0.19520       -2.03460
C          0.61010       -2.02990       -1.17080
C         -0.86160       -2.43540       -0.99010
C          1.24170       -2.76790       -2.35630
H          0.71480        2.02830       -0.13590
H         -0.97860        1.47020       -0.22160
H         -0.10220        1.44190        1.32600
H          0.00450       -0.30180       -3.31940
H         -0.18580        1.21290       -2.33940
H          2.21760        1.09760       -1.61760
H          2.47050       -0.38710       -2.63560
H          1.15280       -2.32870       -0.26400
H         -0.95200       -3.51200       -0.81260
H         -1.30440       -1.90890       -0.14170
H         -1.44670       -2.19420       -1.88520
H          2.31830       -2.59170       -2.42730
H          1.09320       -3.84600       -2.23990
H          0.78410       -2.48220       -3.31040
