9
gdb 2126	3.86814	3.72985	1.92253	4.3657	40.67	-0.2903	-0.0799	0.2104	581.7938	0.055819	-416.384141	-416.378737	-416.377793	-416.413665	18.463
O         -0.05390       -0.01430        0.00350
C         -0.01370        1.17320        0.01010
O         -1.09730        1.99210        0.02780
C         -0.67070        3.34640        0.02990
O          0.74900        3.36190        0.01200
C          1.21820        2.08720       -0.00050
O          2.36620        1.78120       -0.01730
H         -1.05130        3.84900       -0.86400
H         -1.02840        3.83900        0.93870
