15
gdb 19898	3.95063	1.96347	1.6648	1.8369	65.01	-0.23	-0.0328	0.1972	792.9125	0.11818	-362.564188	-362.557379	-362.556434	-362.59595	25.39
O         -0.46940        0.35620       -0.83360
C          0.01750        0.99220        0.06630
C          1.11900        2.00270       -0.06990
C          1.54760        2.81430       -1.25020
C          0.41140        3.62830       -1.90320
C         -0.91230        3.56060       -1.25330
N          0.13390        4.38990       -0.62790
C          1.17340        3.52280        0.03810
H         -0.28680        0.81460        1.12400
H          1.98140        1.62820        0.48940
H          2.51930        2.71290       -1.71520
H          0.57120        4.16590       -2.83170
H         -1.69250        4.17390       -1.69680
H         -1.28130        2.66810       -0.76860
H          1.78980        4.00180        0.78830
