16
gdb 8356	6.21484	1.07182	1.06756	1.9973	76.15	-0.2327	0.0239	0.2566	1169.9281	0.129275	-346.510813	-346.503031	-346.502086	-346.54468	28.131
C          0.00320        1.40230       -0.03730
C         -0.00240       -0.05120       -0.00810
C         -0.00470       -1.25580        0.00940
C         -0.01640       -2.68450        0.05320
C          0.81260       -3.65610        0.94700
C          0.05870       -4.47570       -0.12280
C         -1.22520       -3.66370        0.15470
O          0.44900       -3.46980       -1.13630
H          0.69540        1.81340        0.70550
H          0.31360        1.77040       -1.02130
H         -0.99280        1.80830        0.17060
H          1.89190       -3.58960        0.80870
H          0.51440       -3.76060        1.99310
H          0.16790       -5.52440       -0.39380
H         -1.71120       -3.76890        1.12780
H         -1.92790       -3.60380       -0.67650
