20
gdb 8144	4.0948	1.5974	1.34458	0.2877	81.12	-0.2139	0.0291	0.2431	1007.174	0.177264	-311.88323	-311.875302	-311.874357	-311.91484	31.262
C          0.03380        1.48780        0.01670
C         -0.01890       -0.00640       -0.02970
C         -0.03840       -0.78760       -1.11610
C         -0.01050       -2.23660       -0.77150
C          1.23340       -2.69820       -0.02910
C          0.00550       -2.29650        0.75040
C         -0.75260       -3.34320        1.53130
C         -0.04590       -0.84400        1.23840
H          0.94450        1.84310        0.51640
H          0.01010        1.92230       -0.98660
H         -0.81060        1.89860        0.58590
H         -0.03110       -0.42460       -2.13880
H         -0.55930       -2.95720       -1.36950
H          1.46910       -3.75820       -0.05270
H          2.09820       -2.04160       -0.04180
H         -0.71420       -4.31700        1.03240
H         -0.33430       -3.47260        2.53710
H         -1.80770       -3.06790        1.64540
H          0.78860       -0.59880        1.90970
H         -0.96330       -0.65120        1.81510
