15
gdb 3375	5.10485	2.29737	2.09798	0.917	66.34	-0.2419	0.0512	0.2931	679.9994	0.125337	-271.318448	-271.31211	-271.311165	-271.348321	24.69
C          0.03870       -1.20030        0.00970
C          0.04660        0.00300        0.03190
C          0.05950        1.43820        0.06110
C          0.48510        2.24790        1.27360
C          1.60480        1.53230        2.03780
C          2.47520        1.55100        0.73610
C          1.33180        2.26610        0.00750
H          0.02630       -2.26160       -0.01430
H         -0.76130        1.90190       -0.48110
H         -0.17380        3.00940        1.67400
H          2.03360        2.14960        2.82960
H          1.35070        0.55090        2.44700
H          3.36260        2.17820        0.84230
H          2.76930        0.58140        0.32560
H          1.43990        3.04410       -0.73920
