15
gdb 14576	14.45205	0.65749	0.63637	3.9857	68.94	-0.2748	0.005	0.2798	1631.8197	0.116286	-362.624539	-362.615569	-362.614625	-362.659169	30.215
C         -0.03820       -1.16460       -0.00360
C         -0.02330        0.03670        0.00240
C          0.03380        1.49200        0.00940
C          1.47640        2.00470       -0.00160
O          1.41990        3.42060        0.00620
C          2.69500        4.01040       -0.00260
C          2.55190        5.46930        0.00620
N          2.47290        6.62090        0.01260
H         -0.06930       -2.22600       -0.00850
H         -0.49010        1.90060       -0.86250
H         -0.47350        1.89150        0.89520
H          2.02020        1.63260        0.88020
H          2.00340        1.64170       -0.89720
H          3.28780        3.71040        0.87720
H          3.27140        3.71940       -0.89630
