13
gdb 5294	5.16926	1.62643	1.23717	4.2402	61.13	-0.2369	-0.0012	0.2357	896.2905	0.098289	-394.860525	-394.853547	-394.852603	-394.891941	25.442
N         -0.10200        1.31670        0.00890
C          0.05400       -0.03430        0.00250
O          1.13540       -0.60030       -0.00890
C         -1.22790       -0.77800        0.01110
C         -1.37330       -2.14220        0.00800
N         -2.72690       -2.35900        0.01880
C         -3.33990       -1.13680        0.02790
N         -2.46430       -0.16250        0.02360
H          0.71470        1.90240        0.00240
H         -1.02590        1.71570        0.01690
H         -0.64850       -2.93730       -0.00070
H         -3.18420       -3.25570        0.01980
H         -4.41430       -1.03050        0.03730
