20
gdb 15635	3.07055	1.63355	1.23805	1.7056	77.64	-0.2242	0.0242	0.2484	1063.0136	0.176525	-349.020801	-349.012062	-349.011118	-349.054471	31.855
C          0.13720        1.55790       -0.10220
C         -0.11220        0.05250        0.10150
C          0.64710       -0.53030        1.25600
C          0.16030       -1.05840        2.37620
C          1.27430       -1.50030        3.27810
O          2.46780       -1.22530        2.55160
C          2.16190       -0.58850        1.30690
C          2.81040       -1.36740        0.16090
H          1.19050        1.76780       -0.31340
H         -0.45190        1.93570       -0.94330
H         -0.14260        2.12430        0.79140
H         -1.18280       -0.12220        0.25390
H          0.15880       -0.47790       -0.82140
H         -0.88720       -1.16190        2.63360
H          1.27900       -0.95380        4.23600
H          1.22790       -2.57320        3.52370
H          2.59000        0.42880        1.32030
H          2.37790       -2.36970        0.08450
H          2.67160       -0.85000       -0.79440
H          3.88430       -1.46600        0.34170
