18
gdb 15239	2.28309	2.03099	1.39279	1.033	74.94	-0.2276	0.0488	0.2765	983.2233	0.151047	-347.747002	-347.737876	-347.736932	-347.780465	32.983
C          0.10310        1.08980        0.48390
O         -0.11970        0.04500       -0.44820
C         -1.32500       -0.60420       -0.25910
C         -1.42720       -2.01170       -0.74350
C         -0.25610       -2.69420       -1.41150
C         -1.42640       -1.73970        0.77080
C         -0.29860       -2.09400        1.57660
C          0.63480       -2.39890        2.27320
H          1.06470        1.54120        0.23060
H         -0.68130        1.85870        0.41510
H          0.13950        0.70770        1.51120
H         -2.20260        0.04080       -0.33960
H         -2.40140       -2.29350       -1.13400
H          0.69080       -2.35280       -0.99200
H         -0.31800       -3.77970       -1.28560
H         -0.25000       -2.47600       -2.48440
H         -2.38730       -1.83660        1.26880
H          1.46030       -2.66710        2.88430
