13
gdb 8834	3.13445	1.47807	1.09056	2.6	55.09	-0.2972	-0.0703	0.2268	1019.7336	0.092652	-435.745727	-435.73712	-435.736176	-435.779897	29.096
O          0.14310        1.34840        0.12270
C          0.02870       -0.03980        0.04260
C         -1.41260       -0.49140        0.04470
O         -2.32510        0.30200        0.08680
C         -1.75730       -2.00150        0.01260
O         -3.13270       -2.19330        0.11380
C         -1.20030       -2.59880       -1.22020
N         -0.74830       -3.05390       -2.18100
H         -0.75740        1.70250        0.13140
H          0.50660       -0.43240       -0.86950
H          0.53790       -0.53020        0.88950
H         -1.24800       -2.47760        0.86480
H         -3.53030       -1.31240        0.01170
