14
gdb 12046	4.07794	1.74673	1.56847	5.1273	61.4	-0.2653	0.0145	0.2797	822.9829	0.107663	-378.679557	-378.672708	-378.671764	-378.71042	26.33
O         -0.00130        1.37850       -0.08080
C          0.02740       -0.01580       -0.01850
C          0.30950       -0.68270        1.40160
C         -1.10320       -1.25990        1.36050
N         -2.01290       -0.09880        1.18000
C         -1.35870       -0.71410        0.00400
C          0.91230       -0.52430       -1.06650
N          1.59740       -0.97400       -1.88050
H         -0.74430        1.63050        0.48900
H          1.09270       -1.44030        1.35250
H          0.52090        0.03510        2.19690
H         -1.46030       -2.17870        1.80570
H         -2.97470       -0.43200        1.20860
H         -1.92460       -1.09160       -0.83760
