24
gdb 9959	2.32039	1.58773	1.41553	0.0863	85.47	-0.2494	0.0801	0.3295	1121.7953	0.221668	-314.272917	-314.26264	-314.261696	-314.30716	38.317
C          2.75000        0.59610        0.86520
C          1.56780       -0.30600        0.48160
C          1.55010       -0.72750       -0.98330
C          1.36980        0.42990       -1.95350
C          2.40890       -1.88660       -1.46680
C          3.36110       -2.66700       -0.58320
C          0.89990       -2.04180       -1.38960
C          0.21340       -2.99040       -0.42780
H          3.70560        0.10160        0.66360
H          2.74140        1.53880        0.30980
H          2.71900        0.84380        1.93110
H          1.57310       -1.18380        1.13340
H          0.62830        0.21940        0.70300
H          2.20420        1.13840       -1.90690
H          1.30440        0.07110       -2.98540
H          0.44950        0.98680       -1.73680
H          2.79580       -1.76020       -2.47640
H          3.00100       -2.77420        0.44240
H          3.51840       -3.67670       -0.97980
H          4.34090       -2.17860       -0.53520
H          0.39520       -2.00120       -2.35320
H          0.73010       -3.08080        0.53010
H         -0.81120       -2.66340       -0.21700
H          0.15420       -3.99650       -0.85850
