17
gdb 8018	3.45411	2.043	1.59541	3.7854	68.13	-0.2376	-0.0008	0.2367	848.3384	0.142373	-363.861603	-363.854349	-363.853405	-363.892844	27.951
C         -0.09690        1.55590        0.02500
C          0.00370        0.04940       -0.04450
C         -1.28720       -0.77000        0.27810
C         -0.55240       -1.33110        1.53080
N          0.71690       -0.65940        1.09430
C          1.49850       -1.39750        0.16410
O          2.17230       -2.37420        0.31900
C          1.01050       -0.57230       -1.04670
H          0.89720        2.01310        0.05040
H         -0.63070        1.94440       -0.84980
H         -0.63950        1.87550        0.92050
H         -2.17640       -0.16890        0.47880
H         -1.53750       -1.52710       -0.46930
H         -0.90740       -0.93150        2.48350
H         -0.45610       -2.41620        1.61140
H          0.60740       -1.18210       -1.85810
H          1.73990        0.13120       -1.45740
