15
gdb 4557	4.03544	1.74352	1.23132	4.5378	64.77	-0.1753	0.0527	0.228	941.2173	0.120164	-396.033394	-396.025387	-396.024443	-396.065515	29.14
C         -0.03010        1.43890        0.04580
N         -0.03150       -0.00310        0.02280
C         -1.15760       -0.84460        0.01980
C         -0.71290       -2.12010        0.03290
N         -1.36420       -3.35620        0.12750
N          0.67820       -2.07070        0.01250
C          1.13280       -0.75210        0.03370
O          2.28510       -0.35740        0.05790
H          1.01380        1.75740        0.04560
H         -0.53270        1.85320       -0.83580
H         -0.52300        1.82560        0.94540
H         -2.16020       -0.45500       -0.01230
H         -2.36250       -3.23610        0.24480
H         -1.20450       -3.94310       -0.68670
H          1.29100       -2.84700        0.19120
