16
gdb 17916	3.39729	2.30046	2.2136	1.4634	63.57	-0.2447	0.0029	0.2476	716.5156	0.133224	-383.732997	-383.726997	-383.726053	-383.762651	25.046
O          0.07490        1.37830        0.10010
C          0.00990       -0.01620        0.01160
C         -1.37530       -0.63120       -0.40870
C         -1.47260       -0.00230       -1.82840
O         -0.10850        0.03500       -2.28720
C          0.68430       -0.61560       -1.23830
C          0.27740       -2.06280       -1.12770
C         -0.96130       -2.06810       -0.61360
H          0.09870        1.71160       -0.80650
H          0.37000       -0.43670        0.95150
H         -2.22690       -0.43170        0.23990
H         -2.08640       -0.59720       -2.51220
H         -1.86750        1.02000       -1.78840
H          1.72960       -0.37720       -1.42600
H          0.86300       -2.90780       -1.46490
H         -1.59690       -2.92710       -0.43740
