17
gdb 10272	2.69895	1.83302	1.12141	2.9616	75.91	-0.2294	-0.0371	0.1924	1062.1225	0.140344	-360.050304	-360.040631	-360.039687	-360.08485	32.549
C          0.06320        1.44670       -0.09570
N          0.12470        0.00260       -0.07730
C          0.56710       -0.63720        0.93570
C          1.10890        0.03440        2.11460
N          1.52930        0.63250        3.01110
N          0.52340       -2.01060        1.01260
C          0.00110       -2.72500       -0.13940
C          1.40080       -2.75970        1.89520
H          0.58430        1.81380       -0.98740
H         -0.98240        1.76440       -0.19080
H          0.49330        1.93980        0.78660
H          0.74030       -2.80000       -0.94990
H         -0.28250       -3.73340        0.17330
H         -0.86920       -2.19790       -0.53020
H          1.66640       -2.16090        2.76730
H          0.88480       -3.66020        2.24240
H          2.32890       -3.06880        1.39150
