12
gdb 976	3.76313	3.54653	1.84847	1.5706	52.49	-0.1975	0.0211	0.2186	638.8503	0.092357	-356.716094	-356.709739	-356.708794	-356.746043	23.293
N          0.16990        1.40380        0.09800
C          0.00280        0.03350        0.02650
C         -1.09280       -0.77370        0.01340
N         -2.43420       -0.33300       -0.02560
N         -0.66160       -2.10310        0.04300
C          0.62290       -2.02780        0.06140
O          1.11400       -0.74960        0.06460
H          0.89070        1.75600       -0.52100
H         -0.71410        1.86710       -0.07700
H         -2.91280       -0.53230        0.84900
H         -2.94950       -0.82320       -0.75120
H          1.35500       -2.81880        0.06350
