10
gdb 21370	5.61066	2.35262	1.65758	5.3802	54.42	-0.2517	-0.0567	0.195	670.141	0.06318	-409.614632	-409.609409	-409.608465	-409.64381	19.827
N         -0.04730        1.37230        0.01050
C          1.27650        1.74670       -0.00090
N          2.13760        0.73710       -0.01450
C          1.31450       -0.34310       -0.01230
C         -0.01420       -0.00340        0.00260
N         -0.76490       -1.12550        0.00390
N          0.00170       -2.13160       -0.00960
O          1.42550       -1.65850       -0.02010
H         -0.84500        1.98490        0.02190
H          1.55960        2.78900        0.00190
