16
gdb 20550	4.43716	1.35649	1.34392	3.8416	65.69	-0.2982	-0.0407	0.2575	987.1256	0.130137	-379.893549	-379.885826	-379.884881	-379.926276	27.756
C         -0.03560        1.57850        0.16370
C         -0.02910        0.04620        0.01810
C          0.85790       -0.61810        1.08620
C         -1.42610       -0.50370        0.06150
N         -1.96190       -1.14250       -0.94520
O         -3.22560       -1.49090       -0.54990
N         -3.48200       -1.06410        0.72100
C         -2.39530       -0.45970        1.10990
H          0.98360        1.96950        0.08900
H         -0.64100        2.04920       -0.61590
H         -0.43850        1.88360        1.13580
H          0.36920       -0.20670       -0.97010
H          0.88420       -1.70420        0.96140
H          1.88230       -0.24020        1.01490
H          0.49320       -0.40190        2.09640
H         -2.33080       -0.02230        2.09410
