17
gdb 13117	4.07788	1.28751	1.05092	1.6769	66.63	-0.254	0.016	0.2699	1133.5446	0.141428	-400.986023	-400.977717	-400.976772	-401.019539	29.263
C         -0.06300        1.45790        0.03040
C         -0.16190       -0.05070        0.16480
O          0.89030       -0.48800        1.02530
C          0.91480       -1.86730        1.21720
C          1.97220       -2.33270        2.23450
O          0.92380       -2.93110        3.06230
C         -0.06880       -2.46490        2.22590
N         -1.31750       -2.51760        2.32090
H          0.90700        1.74690       -0.38440
H         -0.84980        1.82940       -0.63260
H         -0.17700        1.93850        1.00610
H         -1.13160       -0.35050        0.58180
H         -0.05660       -0.53960       -0.81770
H          0.92850       -2.41310        0.26200
H          2.69130       -3.08440        1.90380
H          2.46670       -1.51030        2.75510
H         -1.61060       -2.98040        3.18380
