14
gdb 19641	5.34514	1.78525	1.65185	3.5291	66.75	-0.2353	-0.0179	0.2174	782.2003	0.10664	-345.301824	-345.295736	-345.294791	-345.332109	23.667
O         -0.15630        0.05070        0.15880
C          0.02320        1.22580       -0.07290
C          1.30580        1.90160       -0.01940
C          2.75490        1.47290        0.30400
C          3.05580        2.86830        0.83190
C          3.28810        2.54480       -0.63570
C          1.83830        3.01610       -0.95700
C          1.60980        3.33520        0.48760
H         -0.82120        1.89970       -0.35470
H          3.17550        0.51730        0.58120
H          3.75450        3.18530        1.59280
H          4.19920        2.56620       -1.21630
H          1.36130        3.40240       -1.84780
H          0.91790        4.02190        0.95650
