17
gdb 16464	3.21488	2.75101	1.82011	0.1866	67.34	-0.2361	0.0783	0.3145	758.6434	0.144143	-363.797689	-363.791408	-363.790464	-363.827648	25.675
C          0.00720        1.51230       -0.01120
C          0.03780        0.00490       -0.01670
C          0.46560       -0.73870       -1.27770
O          0.35840       -2.11670       -0.87070
C         -0.08020       -1.99270        0.45960
C          0.62670       -0.81240        1.18840
N         -0.61030       -0.49320        1.98820
C         -1.12170       -0.84580        0.61490
H          0.99900        1.92770       -0.22240
H         -0.68070        1.89560       -0.77340
H         -0.32030        1.87450        0.96590
H         -0.19550       -0.54840       -2.13280
H          1.49750       -0.51610       -1.57750
H         -0.21840       -2.96300        0.93730
H          1.63180       -0.75730        1.61030
H         -0.80730       -1.26460        2.63380
H         -2.18270       -0.83030        0.35920
