15
gdb 7427	3.39099	1.56402	1.1843	2.921	58.64	-0.2561	-0.0779	0.1782	993.1677	0.11674	-436.986125	-436.977253	-436.976309	-437.019744	31.524
C          0.00940        1.55840       -0.13270
C          0.07360        0.02470        0.00880
O          0.76440       -0.34850        1.17460
C         -1.32270       -0.56740        0.02550
O         -1.77250       -1.09280        1.02320
C         -2.15750       -0.49690       -1.26970
N         -3.39410       -1.01390       -1.10810
O         -1.70420       -0.02960       -2.29720
H          1.02800        1.94900       -0.07590
H         -0.43480        1.84200       -1.08830
H         -0.56910        1.99450        0.68780
H          0.58960       -0.37990       -0.87340
H          0.10720       -0.74030        1.76820
H         -3.65180       -1.40100       -0.21480
H         -4.02770       -1.05050       -1.88860
