13
gdb 20492	5.08299	2.0838	1.50594	0.9806	59.14	-0.2478	-0.0162	0.2316	765.9773	0.0992	-394.766753	-394.760771	-394.759827	-394.797381	21.782
C         -0.06010        1.49490        0.10020
O          1.25780        1.91710       -0.30660
C          2.13880        0.82030       -0.62480
C          1.28730       -0.38130       -0.39370
N          1.35090       -1.70410       -0.45900
N          0.11590       -2.05240       -0.07650
N         -0.73470       -1.06430        0.22870
C          0.01810        0.00810        0.02480
H         -0.26530        1.86960        1.11160
H         -0.80580        1.92710       -0.57980
H          2.48070        0.91890       -1.66350
H          3.02050        0.86160        0.02810
H         -0.16220       -3.01890       -0.02050
