16
gdb 7099	3.97327	1.19719	0.99938	1.5605	67.04	-0.2586	0.0097	0.2683	1178.7527	0.127544	-383.74314	-383.734023	-383.733079	-383.778535	31.392
C         -0.10310        1.04890       -0.40720
C         -0.47170       -0.41030       -0.18870
O          0.19450       -1.27110       -1.14060
C          1.43500       -1.66410       -0.82430
O          2.02710       -1.34980        0.17660
C          2.05230       -2.53430       -1.92110
C          1.13670       -3.42180       -2.62140
C          0.40480       -4.17510       -3.20340
H          0.95860        1.21100       -0.20750
H         -0.32450        1.35730       -1.43290
H         -0.68110        1.68120        0.27420
H         -0.21040       -0.73630        0.82050
H         -1.53520       -0.58610       -0.36440
H          2.52380       -1.84450       -2.63500
H          2.86620       -3.09330       -1.45090
H         -0.25240       -4.83490       -3.71330
