20
gdb 16180	4.00257	1.53626	1.33089	1.3497	74.51	-0.2576	0.0766	0.3343	996.1628	0.178831	-349.005076	-348.997287	-348.996343	-349.036982	30.376
O         -0.06550        1.37930        0.48960
C          0.02460        0.00780        0.11500
C         -1.36480       -0.51870       -0.10110
C         -2.15380       -1.02810        1.08280
C         -1.69030       -1.99520        0.01950
C         -2.67550       -2.36060       -1.08260
C         -3.28160       -1.01000       -1.53100
C         -2.17580        0.03780       -1.26770
H          0.82650        1.73730        0.52610
H          0.61070       -0.10330       -0.81290
H          0.52990       -0.58380        0.89590
H         -1.63620       -1.05640        2.03590
H         -3.20900       -0.78850        1.16520
H         -0.92090       -2.71330        0.28530
H         -2.13090       -2.83140       -1.91040
H         -3.44250       -3.07220       -0.75740
H         -3.60440       -1.02350       -2.57540
H         -4.17000       -0.77900       -0.93500
H         -2.57850        1.03530       -1.06900
H         -1.51640        0.12710       -2.14130
