16
gdb 2199	3.82638	2.35032	1.71598	2.5618	61.64	-0.241	-0.0222	0.2188	778.6803	0.135525	-325.779568	-325.771919	-325.770975	-325.811299	27.383
C         -0.79920        1.32920       -0.38430
C          0.00100        0.04300       -0.24860
N          1.27790       -0.02840       -1.01790
C          2.05840       -0.52800        0.15210
C          3.38130        0.16890        0.42970
C          0.84230       -0.16560        1.02340
O          0.65220       -0.02870        2.19510
H         -0.15410        2.19870       -0.23310
H         -1.24890        1.40590       -1.37910
H         -1.60170        1.35290        0.35950
H         -0.65400       -0.83040       -0.39990
H          1.25370       -0.66730       -1.80430
H          2.19630       -1.62150        0.15510
H          3.24930        1.25410        0.42960
H          3.77030       -0.13810        1.40560
H          4.12400       -0.08540       -0.33290
