20
gdb 12414	2.91803	1.96811	1.45419	1.7597	70.38	-0.2475	0.0767	0.3242	938.7038	0.17873	-386.153341	-386.145487	-386.144543	-386.184978	30.894
C         -0.03050        1.57500        0.01260
C          0.03150        0.04680        0.00800
C          0.73100       -0.50690       -1.24710
C          0.89380       -2.02630       -1.16260
O          1.54760       -2.42160        0.03980
C          0.80500       -2.03220        1.18880
C          0.74110       -0.50570        1.26480
O          2.05720        0.01840        1.40450
H          0.97690        1.99590        0.07510
H         -0.50980        1.95470       -0.89590
H         -0.59990        1.94400        0.87270
H         -0.99520       -0.34900        0.02730
H          0.16700       -0.24520       -2.14990
H          1.72040       -0.04310       -1.34550
H         -0.09280       -2.51690       -1.22010
H          1.50820       -2.41000       -1.98210
H         -0.20780       -2.46640        1.16140
H          1.33890       -2.43790        2.05280
H          0.19060       -0.20110        2.16350
H          2.62510       -0.53840        0.85730
