18
gdb 4958	3.16709	2.15256	1.3021	0.5519	81.87	-0.2301	0.0071	0.2372	951.2588	0.155304	-310.751165	-310.743605	-310.742661	-310.782636	29.116
C          0.01100        1.52110       -0.01740
C          0.01000        0.01260       -0.00350
C         -0.00860       -0.70010       -1.20360
C         -0.01030       -2.09250       -1.22300
C          0.00710       -2.79400       -0.02300
C          0.02570       -2.09390        1.18050
C          0.02750       -0.69830        1.21250
C          0.04800        0.02980        2.53370
H          0.89480        1.93230        0.48530
H          0.00130        1.90490       -1.04070
H         -0.86260        1.93340        0.50210
H         -0.02200       -0.15020       -2.14040
H         -0.02490       -2.62220       -2.16990
H          0.00610       -3.87910       -0.01990
H          0.03920       -2.64040        2.11930
H          0.93110        0.67310        2.63010
H         -0.82620        0.68140        2.65300
H          0.05560       -0.67350        3.37020
