11
gdb 8610	2.15724	2.10984	1.51364	3.898	61.33	-0.3054	-0.0387	0.2668	866.6199	0.070213	-356.39599	-356.3878	-356.386856	-356.428422	28.681
N         -0.05880        1.48370        0.05760
C          0.00310        0.01770        0.01630
C          0.70770       -0.48310        1.20440
C          1.30110       -0.88100        2.16660
C         -1.38900       -0.50170        0.00480
N         -2.47300       -0.89580       -0.01660
C          0.69480       -0.49750       -1.20400
N          1.24960       -0.81920       -2.16470
H          0.88610        1.85170        0.11960
H         -0.47870        1.83360       -0.79960
H          1.82100       -1.23830        3.02250
