14
gdb 15105	8.42044	0.73656	0.70885	1.487	73.04	-0.2532	0.0158	0.2691	1525.1894	0.104552	-345.307269	-345.298837	-345.297893	-345.342175	29.006
C         -0.08800       -1.23320        0.01980
C         -0.03200       -0.03420        0.02260
C          0.02110        1.42880        0.02630
C          1.38410        1.96090       -0.02260
C          2.49910        2.41110       -0.06540
C          3.84340        2.92170       -0.08640
C          4.36430        3.70280       -1.22580
O          4.01350        4.34700       -0.00820
H         -0.13380       -2.29400        0.01780
H         -0.55420        1.81570       -0.82620
H         -0.48700        1.80870        0.92350
H          4.56250        2.36180        0.51080
H          5.42920        3.66330       -1.45170
H          3.70770        3.90240       -2.07040
