14
gdb 4981	3.42187	2.27012	1.36652	3.2207	67.82	-0.2044	0.0001	0.2044	839.4815	0.109917	-378.781043	-378.774316	-378.773372	-378.811485	26.453
N         -0.03150        1.42180       -0.12970
C         -0.01320        0.03100       -0.05080
C         -1.17320       -0.74260        0.03420
N         -1.20080       -2.07720        0.05320
C         -0.03240       -2.71380       -0.01160
C          1.19260       -2.05370       -0.09140
C          1.20490       -0.66660       -0.11000
O          2.33790        0.09020       -0.17550
H          0.83250        1.85870        0.15770
H         -0.83740        1.85510        0.29720
H         -2.13640       -0.23660        0.08820
H         -0.06540       -3.79980        0.00240
H          2.12270       -2.61380       -0.13520
H          3.10750       -0.48800       -0.19180
