19
gdb 1885	5.13505	1.89288	1.4927	0.2785	74.16	-0.2244	0.0345	0.2589	885.4255	0.172142	-273.812881	-273.805312	-273.804368	-273.84417	28.538
C         -0.10450        1.57230       -0.01320
C          0.01420        0.04440        0.00680
C          0.81920       -0.53810       -1.18700
C          1.58810       -1.75370       -0.61950
C          1.61890       -1.48530        0.87330
C          2.48450       -2.28310        1.79640
C          0.76160       -0.51510        1.19740
H          0.88620        2.03990        0.01000
H         -0.61880        1.91620       -0.91730
H         -0.66910        1.94040        0.85030
H         -1.00760       -0.36830        0.00040
H          0.18630       -0.79030       -2.04240
H          1.53660        0.21720       -1.52840
H          1.06760       -2.70140       -0.82330
H          2.59070       -1.86140       -1.05160
H          3.54500       -2.18500        1.53020
H          2.36480       -1.97010        2.83730
H          2.24930       -3.35380        1.73440
H          0.57550       -0.17010        2.21050
