13
gdb 5208	9.28887	1.01379	0.91929	2.4298	74.94	-0.2243	-0.0248	0.1995	1206.4975	0.09593	-361.474696	-361.467289	-361.466345	-361.508578	25.14
C         -0.09510        1.45460        0.03650
C         -0.01820        0.00390        0.01570
C          0.04210       -1.20140       -0.00080
C          0.13540       -2.59980       -0.02600
C          1.14130       -3.48420       -0.28900
N          0.67000       -4.77870       -0.16680
C         -0.57420       -4.62970        0.15810
O         -0.98650       -3.35090        0.26640
H          0.59990        1.88000        0.76900
H          0.14810        1.88070       -0.94320
H         -1.10450        1.78580        0.30300
H          2.16300       -3.26770       -0.55550
H         -1.31120       -5.39380        0.35000
