15
gdb 13300	5.8389	1.28091	1.1198	1.3319	66.71	-0.2507	0.0198	0.2704	1026.2411	0.118975	-362.64175	-362.634262	-362.633318	-362.674273	26.989
C         -0.04560       -1.21030        0.02090
C         -0.00820       -0.01130        0.08470
C          0.05100        1.44290        0.14280
C          1.45350        2.01440       -0.10540
C          1.52540        3.56370       -0.01510
N          2.38110        3.84330        1.15070
C          2.75780        2.71080        1.57410
O          2.34830        1.57940        0.95240
H         -0.08100       -2.27050       -0.02670
H         -0.62440        1.87290       -0.60890
H         -0.30190        1.80020        1.11860
H          1.85310        1.62160       -1.04370
H          1.96140        4.01520       -0.91190
H          0.53690        4.01510        0.12880
H          3.40880        2.54140        2.42460
