17
gdb 17364	4.07909	1.56133	1.47698	2.6246	67.59	-0.2323	-0.0181	0.2142	922.0974	0.141706	-363.832194	-363.824454	-363.82351	-363.864991	28.256
C          0.10040        1.19320        0.69030
C          0.05310        0.05260       -0.30940
O          1.00060       -0.23050       -1.00920
C         -1.23820       -0.74460       -0.35360
C         -1.40520       -1.85950       -1.41260
N         -1.61510       -2.92340       -0.36060
C         -0.37050       -2.94720        0.42840
C         -1.34720       -1.87140        0.69430
H          1.10980        1.60230        0.74590
H         -0.59620        1.98270        0.38410
H         -0.22130        0.85350        1.68110
H         -2.10100       -0.07530       -0.30240
H         -2.30310       -1.75480       -2.02320
H         -0.53660       -2.03280       -2.05220
H         -0.33670       -3.76920        1.13650
H          0.57290       -2.71830       -0.06110
H         -1.92890       -1.81360        1.60890
