15
gdb 6655	7.56364	0.81146	0.74297	4.5117	62.97	-0.2847	0.0004	0.2851	1433.8068	0.116828	-399.853856	-399.844824	-399.84388	-399.889384	29.522
C         -0.03910        1.45580       -0.15360
C         -0.09760       -0.03370        0.07300
O         -0.22730       -0.58850        1.13210
O          0.01790       -0.70140       -1.10360
C         -0.02500       -2.12920       -1.00510
C          0.12200       -2.65180       -2.43690
C          0.09470       -4.11070       -2.48540
N          0.07160       -5.26530       -2.50990
H          0.90630        1.72580       -0.63250
H         -0.84430        1.76500       -0.82600
H         -0.13320        1.97040        0.80160
H          0.78510       -2.48650       -0.36350
H         -0.97080       -2.44720       -0.55800
H         -0.68670       -2.25550       -3.05990
H          1.06410       -2.29460       -2.86600
