12
gdb 20590	3.484	1.90092	1.23936	5.1413	60.23	-0.2684	-0.065	0.2034	890.9633	0.081791	-414.65301	-414.645679	-414.644735	-414.684968	25.132
C          0.04910        1.51820        0.05610
C         -0.02810        0.03340        0.08800
C         -1.08490       -0.84490       -0.02290
C         -2.50930       -0.58010       -0.21330
O         -3.36630       -1.42550       -0.29950
N         -0.54510       -2.11570        0.08220
N          0.67920       -2.09150        0.23870
O          1.08590       -0.64480        0.25010
H          0.70170        1.84390       -0.75970
H         -0.93810        1.96040       -0.08300
H          0.47700        1.89320        0.99080
H         -2.75520        0.50310       -0.27550
