17
gdb 1188	4.62576	1.69979	1.66693	3.2052	56.14	-0.2573	0.0541	0.3115	822.4301	0.146175	-383.983835	-383.975187	-383.974242	-384.016109	31.604
C         -0.05100        1.56900       -0.02380
C         -0.07730        0.03580       -0.05970
O          0.50010       -0.49660        1.13750
C         -1.51580       -0.50120       -0.05730
O         -2.19420       -0.14580        1.12950
C          0.70700       -0.51140       -1.25610
O          2.07040       -0.14510       -1.05160
H          0.97720        1.93150        0.05150
H         -0.49460        1.99030       -0.93250
H         -0.62390        1.92210        0.83540
H          1.45370       -0.37750        1.05000
H         -2.08400       -0.07640       -0.89160
H         -1.48580       -1.59530       -0.18480
H         -1.60260       -0.39650        1.84990
H          0.59890       -1.60460       -1.28940
H          0.31940       -0.09260       -2.19680
H          2.61940       -0.64950       -1.65780
