20
gdb 9267	3.18983	1.1058	0.87197	1.2791	78.19	-0.2523	0.0351	0.2874	1359.161	0.173309	-348.96675	-348.956671	-348.955727	-349.002315	35.714
C         -0.13980        1.55870       -0.01010
C         -0.00530        0.03470       -0.03290
C          0.74790       -0.49080       -1.25620
C          0.95100       -2.00720       -1.20300
O         -0.01430       -0.10190       -2.39910
C          0.70510       -0.10200       -3.61540
C         -0.11490        0.47850       -4.67200
C         -0.76950        0.95030       -5.56140
H          0.84310        2.04220        0.02990
H         -0.65170        1.91100       -0.90870
H         -0.70870        1.89050        0.86360
H          0.51630       -0.31430        0.86620
H         -0.99910       -0.43010       -0.02110
H          1.73440        0.00390       -1.30570
H          1.49580       -2.37800       -2.07630
H          1.52720       -2.28450       -0.31450
H         -0.01660       -2.51720       -1.16210
H          1.63740        0.47970       -3.51110
H          1.00220       -1.12140       -3.90960
H         -1.35310        1.36980       -6.34310
