18
gdb 17896	3.83046	1.8903	1.68511	1.4842	66.9	-0.2499	0.0776	0.3275	831.48	0.156035	-384.920808	-384.914014	-384.91307	-384.951347	27.251
O         -0.05530        1.38570       -0.04300
C          0.01150       -0.02510        0.00950
C          0.15070       -0.61760        1.43980
C         -1.38900       -0.43750        1.58300
C         -1.41520       -0.61720        0.03570
C         -1.32760       -2.11480       -0.28530
O         -0.62130       -2.82530        0.72510
C          0.46220       -2.11530        1.30990
H          0.80770        1.73380        0.20430
H          0.70020       -0.41830       -0.75520
H          0.83100       -0.12440        2.14080
H         -1.93170       -1.16430        2.19040
H         -1.65040        0.57980        1.87110
H         -2.17640       -0.11320       -0.56380
H         -2.32470       -2.56650       -0.32090
H         -0.85540       -2.26220       -1.27120
H          1.38660       -2.25740        0.72360
H          0.61820       -2.57170        2.29340
