18
gdb 18394	3.22475	2.21017	1.51129	2.1064	71.59	-0.2505	0.0051	0.2556	861.916	0.156164	-347.7926	-347.785803	-347.784859	-347.82324	27.184
C          0.03720        1.52570       -0.11500
C          1.43920        2.15020        0.11380
C          2.24030        1.51030        1.22850
C          2.73480        0.27340        1.15380
C          2.52620       -0.58410       -0.04780
O          1.76020       -1.79010        0.11090
C          1.18230       -0.71220       -0.63700
C          0.00220       -0.01110        0.00910
H         -0.67780        1.93990        0.60470
H         -0.31360        1.83840       -1.10540
H          2.00950        2.06910       -0.81850
H          1.32340        3.22180        0.30220
H          2.41480        2.09840        2.12660
H          3.31960       -0.14640        1.96880
H          3.39380       -0.71820       -0.69810
H          1.11350       -0.90600       -1.70850
H          0.01340       -0.29200        1.06510
H         -0.93600       -0.39370       -0.40830
