15
gdb 19853	4.72934	2.07461	1.74861	2.2412	67.23	-0.2272	-0.0025	0.2247	758.423	0.120501	-362.572684	-362.566709	-362.565765	-362.602649	23.717
C          0.00850        1.45110        0.15100
O          1.35240        1.94990       -0.02060
C          2.05670        0.93760       -0.70070
C          3.35020        0.19280       -0.25380
N          3.10780       -0.55600        0.99530
C          2.59020       -1.10680       -0.29720
C          1.30150       -0.33570       -0.46800
C          0.10600       -0.06980        0.03730
H         -0.35070        1.75360        1.14250
H         -0.66000        1.90430       -0.59940
H          2.18810        1.18460       -1.76820
H          4.35780        0.40750       -0.58800
H          3.97550       -1.05490        1.20150
H          2.89240       -2.07990       -0.65870
H         -0.64270       -0.73930        0.44040
