16
gdb 7781	3.69695	1.74831	1.24677	3.7739	61.14	-0.2662	0.0064	0.2727	946.3652	0.130974	-420.920282	-420.912865	-420.911921	-420.952207	27.259
C          0.02720        1.54510        0.07430
C          0.01920        0.02730        0.04290
C          0.58640       -0.56200       -1.25090
C          0.94150       -2.04010       -1.15590
O          1.09510       -2.74160       -2.11600
O          1.16850       -2.54030        0.08570
C          0.73380       -1.81640        1.24840
O          0.82670       -0.44300        1.12500
H          1.04950        1.92110       -0.03010
H         -0.57630        1.94580       -0.74530
H         -0.38120        1.91060        1.01990
H         -1.00970       -0.34130        0.19280
H         -0.09240       -0.43430       -2.09740
H          1.51940       -0.04230       -1.50320
H         -0.30190       -2.12960        1.45810
H          1.39530       -2.12900        2.05790
