21
gdb 2724	13.60466	0.79277	0.77066	0.8012	72.83	-0.2478	0.0917	0.3396	1554.0921	0.192972	-312.124574	-312.115003	-312.114059	-312.159319	32.65
C         -0.05140        1.50400       -0.04530
C          0.01740       -0.02350        0.02210
C          0.75180       -0.52010        1.26000
O          0.77030       -1.93030        1.24520
C          1.43100       -2.49540        2.35580
C          1.39040       -4.01260        2.23440
C          2.08750       -4.71300        3.40310
H          0.94970        1.94860       -0.07040
H         -0.58280        1.83450       -0.94240
H         -0.57570        1.91940        0.82250
H         -0.99220       -0.45030        0.02260
H          0.52340       -0.42120       -0.86510
H          1.78240       -0.12220        1.27890
H          0.25320       -0.15160        2.17440
H          2.47720       -2.14290        2.40110
H          0.94740       -2.17350        3.29560
H          0.34260       -4.32820        2.17190
H          1.85890       -4.29790        1.28550
H          1.61770       -4.45850        4.35970
H          2.04430       -5.80030        3.29210
H          3.14360       -4.42810        3.46760
