16
gdb 6423	4.06665	1.39993	1.26709	2.328	71.3	-0.2449	-0.0252	0.2198	989.8183	0.127444	-346.582379	-346.574203	-346.573259	-346.614943	30.842
C         -0.20310        1.60810       -0.02410
C         -0.00960        0.08460        0.00260
C          1.19520       -0.38000       -0.90290
C          2.02110       -0.57280        0.37590
O          3.18430       -0.74570        0.59090
C          0.79050       -0.39320        1.27480
C         -1.26010       -0.61640       -0.23400
C         -2.29490       -1.19720       -0.42990
H          0.74990        2.11720        0.15600
H         -0.58780        1.93300       -0.99490
H         -0.91150        1.92240        0.74740
H          1.00850       -1.33070       -1.41050
H          1.57460        0.34290       -1.62960
H          0.88200        0.32030        2.09770
H          0.43610       -1.34940        1.67030
H         -3.20810       -1.71100       -0.60290
