18
gdb 16383	2.96053	2.3324	1.70107	2.9826	71.17	-0.2298	-0.004	0.2258	833.8491	0.155647	-347.818214	-347.81132	-347.810376	-347.849029	27.358
C         -0.14130        1.53580        0.02590
C          0.06030        0.02320       -0.05400
C          0.99330       -0.52710       -1.15820
C          1.18120       -2.00300       -0.70290
C          1.95720       -1.34110        0.48550
C          2.41450       -0.27710       -0.57110
C          0.83190       -0.56670        1.15410
O          0.60000       -0.41250        2.32380
H          0.81020        2.07640        0.00570
H         -0.75060        1.89620       -0.80870
H         -0.64950        1.79430        0.95940
H         -0.92220       -0.46410       -0.10480
H          0.74830       -0.27350       -2.18950
H          0.28940       -2.59360       -0.47310
H          1.85150       -2.56740       -1.35480
H          2.64620       -1.87960        1.13260
H          3.20790       -0.66630       -1.21290
H          2.67690        0.72370       -0.21910
