12
gdb 1017	9.0876	1.91529	1.58189	2.834	65.16	-0.2054	0.0167	0.2222	727.2033	0.091471	-286.24688	-286.240878	-286.239934	-286.276357	23.043
C          0.01890       -1.21010       -0.00410
C         -0.00240       -0.00530        0.00290
C         -0.00960        1.40900        0.01080
C         -1.13010        2.22370        0.03010
N         -0.70450        3.52070        0.03170
C          0.66930        3.56730        0.01380
C          1.13180        2.27720        0.00060
H          0.03370       -2.27110       -0.01010
H         -2.17680        1.96890        0.04250
H         -1.30950        4.32290        0.04410
H          1.19330        4.50910        0.01220
H          2.16300        1.96310       -0.01480
