18
gdb 9253	6.40193	0.78821	0.7318	2.9261	73.23	-0.2517	0.0465	0.2982	1541.8735	0.151329	-384.914392	-384.904434	-384.90349	-384.950433	34.248
C         -0.08480        1.41070       -0.15660
C         -0.01890       -0.04330       -0.09540
C          0.07250       -1.24380       -0.03560
C          0.09800       -2.70190        0.02160
C         -1.32700       -3.28150        0.13020
O         -2.14310       -2.84460       -0.94860
C         -1.34600       -4.80520        0.06040
O         -2.66380       -5.30380        0.13970
H          0.81380        1.86380        0.27620
H         -0.16880        1.76430       -1.19000
H         -0.94780        1.79560        0.39760
H          0.57520       -3.10290       -0.88190
H          0.69440       -3.04100        0.87830
H         -1.76650       -2.96750        1.08950
H         -2.12040       -1.88030       -0.95630
H         -0.84820       -5.12150       -0.87180
H         -0.78740       -5.22740        0.90250
H         -3.17600       -4.78350       -0.49120
