10
gdb 342	7.13566	2.54107	2.18191	3.3417	41.69	-0.2649	-0.0663	0.1986	555.1885	0.070094	-342.307696	-342.301481	-342.300537	-342.33778	20.624
O          0.00800        1.49300        0.14690
C          0.01060        0.11260        0.08490
C          0.68570       -0.39000       -1.18450
O          1.16000        0.38470       -1.97670
C          0.67230       -0.55040        1.30730
O          1.25460        0.05010        2.16290
H          0.50930        1.79820       -0.62600
H         -1.01880       -0.30030        0.06410
H          0.71700       -1.48610       -1.33870
H          0.54260       -1.65710        1.33580
