18
gdb 6390	3.50997	1.26261	1.0681	1.367	64.94	-0.2716	0.0118	0.2834	1150.8906	0.151021	-422.118575	-422.108941	-422.107997	-422.153776	33.267
C         -0.05400        1.56540        0.01000
C         -0.01460        0.04400        0.07330
C         -1.39510       -0.60780        0.05320
O         -2.13560       -0.27630       -1.10600
O          0.65590       -0.48240       -1.10670
C          2.00560       -0.55750       -1.07310
C          2.53860       -1.11540       -2.37120
O          2.67390       -0.22250       -0.12880
H          0.95830        1.97170       -0.03750
H         -0.62560        1.89440       -0.86080
H         -0.53930        1.96030        0.90820
H          0.54380       -0.28720        0.95360
H         -1.27740       -1.69740        0.15680
H         -1.97470       -0.25070        0.91060
H         -1.59670       -0.54400       -1.85880
H          2.25320       -0.46490       -3.20300
H          3.62380       -1.18990       -2.31500
H          2.10530       -2.10070       -2.56470
