19
gdb 2211	3.39429	3.08162	2.18688	0.1272	70.47	-0.2572	0.0843	0.3415	714.1382	0.172445	-273.765811	-273.758822	-273.757877	-273.797156	27.046
C         -0.21540        1.53840        0.09970
C          0.03970        0.04970        0.01270
C         -1.18590       -0.89990        0.16080
C         -0.44000       -1.70940        1.26460
C          0.79760       -0.78760        1.11850
C          1.82870       -1.24990        0.05750
C          1.07480       -0.44220       -1.04210
H          0.72230        2.10280        0.16140
H         -0.75840        1.89640       -0.78450
H         -0.81700        1.79110        0.98060
H         -2.08280       -0.39260        0.52810
H         -1.45870       -1.45390       -0.74260
H         -0.92100       -1.64490        2.24390
H         -0.26020       -2.76680        1.04750
H          1.19460       -0.34330        2.03370
H          2.84160       -0.88290        0.24200
H          1.88600       -2.33220       -0.09440
H          0.65740       -1.02550       -1.86850
H          1.67250        0.36780       -1.47020
