13
gdb 11148	6.78137	1.27496	1.08035	2.6554	71.97	-0.2115	-0.0296	0.1819	1008.2909	0.09535	-361.482406	-361.475279	-361.474335	-361.513688	26.768
O         -0.01400       -0.01000        0.00300
C         -0.03980        1.19600        0.00990
C         -1.25050        2.14050        0.03170
C         -0.63280        3.52700        0.03100
C          0.70820        3.37690        0.01150
N          1.07060        2.03330       -0.00080
C         -1.35950        4.73050        0.04770
C         -2.02540        5.73610        0.06250
H         -1.88470        1.95110       -0.84060
H         -1.86070        1.94130        0.91880
H          1.46820        4.14410        0.00520
H          2.01330        1.68080       -0.01560
H         -2.60060        6.62820        0.07540
