18
gdb 9855	3.54001	1.34574	1.23526	2.9873	63.59	-0.2493	0.0544	0.3037	1046.5145	0.152146	-422.0491	-422.040255	-422.039311	-422.082335	33.078
O         -0.05290        1.45570        0.04210
C         -0.08580        0.08040        0.36030
C         -1.40140       -0.55060       -0.11290
O         -1.59750       -0.22260       -1.49120
C         -1.43950       -2.05440        0.08510
O         -0.56830       -2.72090       -0.80690
C         -1.55680       -2.62820        1.46760
C         -2.70640       -2.75420        0.48650
H         -0.43060        1.51700       -0.84540
H          0.75610       -0.46620       -0.09760
H          0.01300       -0.01130        1.44690
H         -2.23360       -0.08100        0.42230
H         -0.95990       -0.76640       -1.97350
H         -1.10400       -3.10080       -1.51040
H         -0.97430       -3.51870        1.67150
H         -1.66450       -1.94860        2.30610
H         -3.59840       -2.15790        0.64400
H         -2.88870       -3.73760        0.06460
