17
gdb 15170	4.7639	1.01263	0.86823	2.1187	68.55	-0.2451	0.0219	0.267	1311.8343	0.140135	-400.958943	-400.949941	-400.948997	-400.994	30.132
C         -0.32910        1.12520        0.49840
O          0.53090        0.04390        0.16030
C          0.62450       -0.93240        1.08670
N          1.38430       -1.91530        0.87940
C          1.49270       -2.96300        1.88290
C          0.36100       -3.08980        2.87740
C          0.58370       -3.51890        4.26310
O          0.32990       -2.14670        3.95960
H          0.02510        1.65780        1.38920
H         -0.31580        1.80610       -0.35350
H         -1.35800        0.78440        0.66820
H          0.00400       -0.76950        1.97660
H          1.58560       -3.91950        1.35110
H          2.43530       -2.82630        2.42970
H         -0.62100       -3.28350        2.44100
H         -0.20940       -4.03320        4.80370
H          1.59470       -3.74280        4.60110
