15
gdb 18542	3.94269	2.06791	1.63014	3.5219	65.52	-0.2447	0.0024	0.2471	791.1664	0.121378	-362.695397	-362.689105	-362.688161	-362.725858	24.52
O         -0.08600        0.04170        0.19150
C         -0.04420        1.23320        0.04510
N         -1.02320        2.18820       -0.13590
C         -0.10330        3.34210       -0.00600
C         -0.03860        3.99280        1.35230
C          0.98350        3.53630        2.07710
C          1.83190        2.51970        1.34550
C          1.07280        2.31030        0.02100
H         -2.01290        2.12120        0.06000
H         -0.17760        4.03930       -0.84550
H         -0.76060        4.73140        1.68260
H          1.20870        3.84410        3.09300
H          2.84800        2.89700        1.17690
H          1.93920        1.58450        1.90770
H          1.70660        2.26330       -0.86440
