15
gdb 11448	3.46293	1.79088	1.5918	2.1609	58.17	-0.262	0.0181	0.2801	847.672	0.119415	-436.942133	-436.93473	-436.933786	-436.974194	26.845
O         -0.50480        1.49390        0.18910
C         -0.14760        0.12950        0.10440
C         -1.37230       -0.77400       -0.04260
O         -2.22620       -0.72160        1.07390
C         -3.28120        0.18240        0.78050
C         -3.27970        0.27510       -0.72830
N         -4.15720        0.82090       -1.44710
O         -2.14270       -0.34310       -1.17240
H         -0.80790        1.76920       -0.68250
H          0.54630       -0.06920       -0.72630
H          0.35740       -0.12990        1.03980
H         -1.07040       -1.81590       -0.20560
H         -4.22330       -0.22160        1.15870
H         -3.10370        1.16930        1.22350
H         -3.91660        0.75720       -2.43710
