8
gdb 114	11.40917	4.38216	3.16609	5.2904	34.31	-0.2608	-0.0416	0.2191	372.7845	0.055704	-283.179781	-283.17476	-283.173816	-283.207861	15.692
O         -0.29940       -0.00600        0.00420
C         -0.10220        1.17540        0.00830
N          1.14480        1.80390        0.00040
C          2.40830        1.20960       -0.01400
O          2.63750        0.03390       -0.02210
H         -0.91110        1.93410        0.01930
H          1.13110        2.81440        0.00570
H          3.19640        1.99000       -0.01680
