16
gdb 14257	4.17897	1.63563	1.4627	3.5747	64.67	-0.2365	-0.015	0.2215	879.0571	0.130164	-383.727732	-383.720526	-383.719582	-383.75941	27.436
O         -0.21640        1.44090        0.38640
C         -0.02470        0.07570        0.10080
C          0.34500       -0.88920        1.26990
C         -0.86370       -1.80870        0.88050
C         -1.33600       -0.69480       -0.13800
C         -2.49910       -0.31180        0.82260
C         -2.10270       -1.50040        1.72230
O         -2.61330       -2.02830        2.66730
H          0.64170        1.84490        0.55020
H          0.66410       -0.05770       -0.74530
H          1.32250       -1.36890        1.19060
H          0.25720       -0.43320        2.25940
H         -0.64000       -2.84530        0.63030
H         -1.62210       -0.90980       -1.16630
H         -2.41900        0.67520        1.28420
H         -3.50150       -0.41920        0.39850
