24
gdb 15259	3.24109	1.18071	1.03833	0.0243	85.68	-0.2563	0.0785	0.3348	1304.9732	0.222433	-314.270427	-314.260264	-314.25932	-314.305469	37.191
C          3.04550        1.59840       -0.08360
C          2.31250        0.28320        0.20980
C          1.96600       -0.48200       -1.05380
C          2.90390       -1.47910       -1.71070
C          4.27650       -1.81100       -1.16110
C          1.61440       -1.95580       -1.06610
C          1.57360       -2.81490        0.18410
C          1.63590       -4.31450       -0.13280
H          3.99600        1.41560       -0.59560
H          2.44430        2.24850       -0.72910
H          3.25920        2.14980        0.83770
H          2.92290       -0.32700        0.88260
H          1.38780        0.50030        0.76140
H          1.39210        0.12460       -1.75300
H          2.88630       -1.46590       -2.79820
H          4.30670       -1.82780       -0.06900
H          4.60960       -2.79500       -1.51050
H          5.01890       -1.07730       -1.49540
H          0.83120       -2.22700       -1.77260
H          2.39080       -2.55610        0.86430
H          0.64810       -2.60020        0.73520
H          0.80880       -4.61330       -0.78640
H          2.56880       -4.57190       -0.64500
H          1.57410       -4.91740        0.77900
