17
gdb 3560	5.04331	2.94204	2.89961	0.1781	66.56	-0.2489	0.0989	0.3478	591.5789	0.152218	-272.542567	-272.537534	-272.53659	-272.570884	22.032
C         -0.01820        1.52750        0.01810
C          1.30820        0.81210       -0.06400
C          0.01050        0.02030       -0.05530
C          0.12490       -0.69350       -1.41800
C          1.61950       -1.17160       -1.35450
C          1.87740        0.37580       -1.42970
C          0.65330        0.40080       -2.38500
H         -0.26200        1.93760        0.99390
H         -0.39270        2.13230       -0.79900
H          1.97720        0.83130        0.78900
H         -0.30430       -0.56070        0.80410
H         -0.68630       -1.36400       -1.70320
H          1.94450       -1.69420       -0.45030
H          1.94340       -1.71210       -2.24880
H          2.84180        0.78870       -1.72670
H          0.90290       -0.01900       -3.36160
H          0.08930        1.32350       -2.52660
