14
gdb 11372	6.27615	1.25984	1.06308	4.179	59.74	-0.2437	-0.0084	0.2353	1034.7266	0.107236	-415.897206	-415.889538	-415.888594	-415.929859	27.035
O          0.02100        1.42580        0.00970
C         -0.02140        0.02430        0.00200
C         -1.44910       -0.44200        0.01230
N         -2.49110        0.29380        0.02220
C         -3.63480       -0.62020        0.02950
C         -3.06680       -2.04550        0.02090
O         -3.62120       -3.11560        0.02400
N         -1.69290       -1.82020        0.01130
H          0.94430        1.69430       -0.00270
H          0.46730       -0.40770       -0.88960
H          0.48360       -0.41780        0.87950
H         -4.25960       -0.46150        0.91530
H         -4.27430       -0.45710       -0.84500
H         -1.00820       -2.55910        0.00510
