26
gdb 7390	3.36001	0.98624	0.81405	0.0034	89.16	-0.2941	0.0839	0.378	1545.6439	0.244627	-315.49024	-315.479198	-315.478254	-315.526677	40.338
C         -0.00150        1.63760       -0.00300
C         -0.05740        0.10710        0.02330
C          0.82670       -0.49990        1.12090
C          0.79340       -2.04170        1.20870
C          1.53750       -2.65530        0.01060
C          1.34480       -2.54930        2.57040
C          0.42900       -2.16300        3.74420
C          1.56960       -4.07010        2.59890
H          1.01800        1.99320       -0.19010
H         -0.64580        2.04860       -0.78670
H         -0.32750        2.06290        0.95300
H         -1.09490       -0.21770        0.17890
H          0.23610       -0.27830       -0.96030
H          1.86760       -0.17850        0.96830
H          0.51770       -0.06290        2.07680
H         -0.25950       -2.36030        1.14960
H          1.39300       -3.73620       -0.05550
H          1.19080       -2.22580       -0.93350
H          2.61560       -2.46470        0.08230
H          2.32140       -2.06590        2.72700
H         -0.55400       -2.63830        3.63900
H          0.85650       -2.50050        4.69420
H          0.26880       -1.08500        3.82480
H          2.33080       -4.39370        1.88510
H          1.89530       -4.38930        3.59440
H          0.64210       -4.60920        2.36900
