16
gdb 6748	7.1491	0.66614	0.61634	2.3081	72.7	-0.2546	-0.0459	0.2087	1740.2368	0.127284	-383.727345	-383.717606	-383.716662	-383.763558	32.142
C         -0.07140        1.50170        0.01140
C          0.06130       -0.00820        0.00160
O          1.13390       -0.57470       -0.01200
C         -1.18890       -0.74360        0.00950
C         -2.23230       -1.35160        0.01610
C         -3.46480       -2.12220        0.02380
C         -3.22220       -3.63650        0.01340
O         -4.49890       -4.24850        0.02240
H          0.92030        1.95620        0.00440
H         -0.64380        1.83420       -0.86140
H         -0.62690        1.82430        0.89860
H         -4.06160       -1.86720        0.90820
H         -4.07840       -1.85780       -0.84630
H         -2.64250       -3.90680       -0.88120
H         -2.62550       -3.91630        0.89380
H         -4.37820       -5.20240        0.01580
