16
gdb 861	6.31859	2.01406	1.55685	1.8965	68.88	-0.1849	0.0493	0.2342	810.2976	0.137479	-288.692943	-288.685603	-288.684659	-288.724105	26.775
C          0.03030        1.49230        0.08270
C          0.00280        0.00580       -0.05300
C         -0.09600       -0.80340       -1.16120
C         -0.07510       -2.15750       -0.71710
C          0.03610       -2.15020        0.65420
C          0.10390       -3.26610        1.64350
N          0.08220       -0.82810        1.04180
H          0.95820        1.85220        0.54600
H         -0.04440        1.95540       -0.90390
H         -0.80280        1.87180        0.68860
H         -0.17480       -0.45680       -2.18090
H         -0.13480       -3.04260       -1.33280
H          1.03720       -3.25570        2.22150
H         -0.72390       -3.23630        2.36400
H          0.05120       -4.22540        1.12350
H          0.16290       -0.51450        1.99400
