14
gdb 4322	3.88552	1.86029	1.26096	6.9905	68.16	-0.2073	-0.0043	0.203	896.7106	0.110101	-378.780318	-378.773503	-378.772559	-378.811015	26.525
O          0.01280       -0.08410        0.02930
C         -0.01160        1.14360        0.01590
C         -1.24420        1.92460        0.02270
C         -1.24410        3.28490        0.00130
N         -2.37900        4.09540       -0.07820
H         -3.23490        3.56210       -0.00920
H         -2.38910        4.85400        0.59390
N         -0.05540        3.97630        0.00190
C          1.15040        3.31120       -0.00050
C          1.20930        1.96530        0.01480
H         -2.18360        1.38520        0.06070
H         -0.07780        4.96600       -0.18110
H          2.02480        3.95120       -0.01010
H          2.16470        1.45610        0.02710
