15
gdb 4507	3.52196	1.83346	1.22415	0.8878	65.35	-0.2017	0.0122	0.2139	963.174	0.118049	-399.852473	-399.844332	-399.843388	-399.885125	28.775
C          0.02080        1.41610        0.06780
C          0.02320       -0.06470       -0.05100
N         -0.01460       -0.78370       -1.13400
C          0.00900       -2.08660       -0.67800
O         -0.01860       -3.13420       -1.52990
C          0.06080       -2.11970        0.67700
C          0.10470       -3.18780        1.70190
O          0.07000       -0.79360        1.08320
H          0.92210        1.77290        0.57730
H         -0.01960        1.85310       -0.93030
H         -0.84220        1.76450        0.64500
H         -0.05390       -2.76310       -2.41930
H          1.01280       -3.13440        2.31430
H         -0.75470       -3.14240        2.38160
H          0.09000       -4.15890        1.20130
