14
gdb 10588	2.72066	1.85107	1.31029	4.9202	64.14	-0.275	-0.052	0.223	937.1145	0.105644	-378.715376	-378.707267	-378.706322	-378.748049	28.397
C         -0.15300        1.56220        0.06530
C         -0.05740        0.05630        0.10790
N          1.15290       -0.57670       -0.37650
C          0.84610       -0.70430        1.07110
C          1.79140        0.03060        1.98190
O          1.92850       -0.22060        3.14770
C          0.33410       -1.96020        1.56610
N         -0.07670       -2.98090        1.92070
H          0.82340        2.03430        0.18410
H         -0.55940        1.87210       -0.90280
H         -0.82460        1.92960        0.84690
H         -0.99660       -0.46300       -0.07660
H          0.96590       -1.45690       -0.85050
H          2.36020        0.82920        1.46500
