20
gdb 15832	5.35318	0.94212	0.88625	1.4846	71.71	-0.2634	0.0852	0.3486	1368.8064	0.175716	-386.122788	-386.113667	-386.112723	-386.156963	33.058
C         -0.09680        1.57570       -0.09180
C         -0.02490        0.04760       -0.03970
C          0.75430       -0.55630       -1.21140
C          0.78230       -2.09230       -1.19030
O         -0.52240       -2.64750       -1.21060
C          1.59760       -2.64010       -2.35340
C          1.37060       -3.98510       -2.88760
O          0.84470       -2.82810       -3.56090
H          0.90310        2.02400       -0.07090
H         -0.59100        1.91800       -1.00800
H         -0.65830        1.97680        0.75770
H          0.44300       -0.26690        0.90310
H         -1.03350       -0.37830       -0.03540
H          0.31360       -0.22910       -2.16370
H          1.78820       -0.18350       -1.20540
H          1.24130       -2.43000       -0.25090
H         -0.80580       -2.60250       -2.13500
H          2.57500       -2.18060       -2.50400
H          2.17140       -4.49830       -3.41630
H          0.62320       -4.61880       -2.41730
