14
gdb 1067	7.43399	1.95952	1.57102	1.735	59.38	-0.1898	0.0312	0.221	760.656	0.114923	-324.589539	-324.583091	-324.582147	-324.619783	23.926
C          0.01780        1.42900        0.03630
N         -0.15570       -0.00900       -0.05710
C          0.55130       -0.67240       -1.05690
C          1.19990       -0.14130       -2.13670
O          1.71090       -1.14460       -2.92110
C          1.39330       -2.31270       -2.32130
C          0.68520       -2.10000       -1.18310
H          1.07100        1.73950        0.13780
H         -0.38530        1.90500       -0.86470
H         -0.54450        1.80720        0.89310
H         -0.09250       -0.47460        0.83700
H          1.37030        0.86110       -2.48670
H          1.73440       -3.20610       -2.81850
H          0.29430       -2.85010       -0.51280
