18
gdb 19693	4.66856	1.69764	1.57712	1.1264	71.08	-0.2409	0.0876	0.3285	880.7928	0.154741	-347.742201	-347.735235	-347.734291	-347.773462	27.039
C          0.02760        1.27090        0.25500
O          0.00870       -0.06100       -0.20750
C         -1.25260       -0.66800       -0.09910
C         -1.36940       -2.08740       -0.61050
C         -0.98610       -3.02850        0.53820
C         -0.58840       -2.15970        1.73050
C         -1.73550       -1.21470        1.28260
C         -2.36630       -2.42220        0.48250
H          1.03640        1.65900        0.09510
H         -0.68680        1.90240       -0.29700
H         -0.21080        1.34150        1.32700
H         -2.02900       -0.02720       -0.54560
H         -1.37270       -2.42370       -1.63890
H         -0.70470       -4.05270        0.32950
H         -0.82510       -2.65290        2.67700
H          0.42120       -1.73870        1.75980
H         -2.25120       -0.57180        1.99250
H         -3.35770       -2.84580        0.43290
