15
gdb 19130	2.83844	2.0041	1.41377	4.4555	65.7	-0.2801	0.0268	0.3068	894.0629	0.11854	-362.637033	-362.629556	-362.628612	-362.669095	27.277
N         -0.01120       -1.13950        0.12940
C         -0.02230        0.01650        0.09050
C         -0.04490        1.45690        0.05850
C          0.55870        2.19260        1.25080
C          1.29690        2.17430       -0.04940
C         -1.23030        2.08170       -0.62370
O         -1.57970        1.58610       -1.90890
C         -2.50490        1.38570       -0.83250
H          0.05880        3.10590        1.55430
H          0.93080        1.58690        2.06760
H          2.18280        1.55710       -0.13230
H          1.30890        3.07300       -0.65590
H         -1.24220        3.17020       -0.53830
H         -2.61250        0.35460       -0.50270
H         -3.42610        1.96260       -0.89430
