19
gdb 12385	2.90811	2.06655	1.30711	3.1761	71.76	-0.2217	-0.0113	0.2103	963.4671	0.16692	-365.092195	-365.084332	-365.083388	-365.124301	29.973
C         -0.04770        1.53960       -0.02460
C          0.06110        0.02140        0.02070
N          0.76400       -0.48800       -1.16400
C          0.83890       -1.94500       -1.21740
C          1.70470       -2.44090       -0.05900
C          1.13110       -1.95560        1.28410
C          0.80900       -0.46870        1.27130
O          1.08160        0.26610        2.19080
H          0.94540        1.98840       -0.10500
H         -0.64580        1.85620       -0.88570
H         -0.51980        1.91630        0.88450
H         -0.96000       -0.41270        0.10250
H          0.31280       -0.12580       -1.99730
H         -0.15760       -2.42700       -1.16050
H          1.28380       -2.23390       -2.17490
H          1.76700       -3.53400       -0.06790
H          2.71980       -2.04980       -0.18740
H          0.18250       -2.47920        1.47600
H          1.79560       -2.16190        2.12640
