14
gdb 21923	6.79975	1.22176	1.06621	1.4423	59.9	-0.2197	0.0178	0.2374	1038.645	0.108837	-415.874484	-415.867102	-415.866158	-415.906389	27.169
O          0.71500        0.15900       -0.65910
C         -0.11060        0.29560        0.49160
C         -1.51410       -0.16240        0.23430
C         -2.73930        0.23750        0.73440
C         -3.66290       -0.62600        0.10460
O         -4.99940       -0.60970        0.28740
N         -3.08340       -1.48410       -0.72260
N         -1.76310       -1.18530       -0.61640
H          0.36860        0.74940       -1.33730
H          0.36550       -0.32630        1.25860
H         -0.12400        1.32500        0.87550
H         -2.94280        1.02340        1.44220
H         -5.36860       -1.30380       -0.27290
H         -1.08670       -1.66880       -1.18140
