20
gdb 5936	3.70473	1.02895	0.97325	1.7459	80.29	-0.2469	0.0452	0.2921	1338.9026	0.173161	-348.989632	-348.978986	-348.978042	-349.026142	37.338
C         -0.20390        1.53430        0.00100
C          0.02410        0.02090        0.01650
C          0.83020       -0.49200        1.23970
C          2.23480        0.12310        1.31300
O          0.18220       -0.09600        2.45910
C          0.91760       -1.95940        1.17070
C          0.94980       -3.16260        1.11380
C          1.00440       -4.61640        1.05290
H          0.72560        2.08720       -0.16450
H         -0.89520        1.80790       -0.80180
H         -0.63030        1.86670        0.95100
H         -0.94290       -0.49750        0.02380
H          0.53570       -0.30400       -0.89690
H          2.16200        1.20330        1.45910
H          2.78060       -0.30320        2.15710
H          2.79200       -0.07770        0.39440
H         -0.61200       -0.63380        2.54870
H          0.83140       -5.06100        2.03920
H          0.24810       -5.01840        0.36970
H          1.98390       -4.96110        0.70340
