16
gdb 10096	2.73043	1.69811	1.06098	2.9684	67.08	-0.2467	-0.011	0.2357	1084.3341	0.128705	-417.08012	-417.070844	-417.069899	-417.115384	30.812
C         -0.07360        1.50380        0.00800
O         -0.03490        0.07580       -0.03100
C         -1.21780       -0.53940        0.01330
N         -1.08480       -1.93560       -0.02970
C          0.04280       -2.74050       -0.10210
O          1.19190       -2.39480       -0.14490
N         -2.31880        0.08710        0.08420
C         -3.56630       -0.64810        0.12860
H          0.96920        1.81830       -0.03640
H         -0.63460        1.89970       -0.84240
H         -0.54510        1.85360        0.93000
H         -1.96080       -2.43360       -0.00210
H         -0.27080       -3.80510       -0.11600
H         -3.73510       -1.26010       -0.77230
H         -3.64170       -1.31210        1.00490
H         -4.39650        0.05940        0.19280
