20
gdb 12636	2.43282	2.21899	1.53559	1.6933	75.43	-0.2508	0.0116	0.2625	931.9674	0.177333	-349.018935	-349.010514	-349.00957	-349.051233	32.479
C          0.66180        1.52860       -0.24620
C          0.09100        0.12680        0.03290
C          0.36530       -0.82670       -1.10970
C          1.23670       -1.78380       -0.78960
C          1.74440       -1.62380        0.62310
O          3.10170       -1.17060        0.64710
C          0.71100       -0.63790        1.24690
C          1.25940        0.20510        2.39540
H          1.74780        1.50080       -0.38570
H          0.22470        1.94940       -1.15800
H          0.44640        2.21780        0.57570
H         -0.99020        0.24190        0.18570
H         -0.08910       -0.69730       -2.08760
H          1.61460       -2.55050       -1.45710
H          1.76940       -2.56350        1.18510
H          3.19710       -0.51500       -0.05210
H         -0.09200       -1.27290        1.64150
H          2.12030        0.80160        2.08510
H          0.49410        0.88120        2.79110
H          1.59360       -0.43730        3.21640
