13
gdb 2956	6.36188	1.73239	1.52296	2.7833	62.62	-0.2632	-0.0572	0.206	798.8311	0.100277	-307.285557	-307.278537	-307.277592	-307.317003	25.002
O         -0.01900       -0.06770       -0.05820
C         -0.04390        1.14810       -0.02350
C          1.18200        1.92930        0.01230
C          2.18900        2.58830        0.04230
C         -1.30740        1.93280       -0.01460
C         -2.48640        1.35200       -0.78660
C         -2.50140        1.31070        0.70030
H          3.08930        3.15290        0.06860
H         -1.20080        3.01010        0.01650
H         -3.12700        2.05750       -1.30260
H         -2.28740        0.42440       -1.31070
H         -2.31240        0.35530        1.17600
H         -3.15250        1.98690        1.24180
