17
gdb 1282	7.6951	1.16141	1.0356	3.4626	62.56	-0.2438	-0.0092	0.2346	1145.1515	0.144657	-346.865957	-346.856961	-346.856017	-346.900596	29.766
C         -0.01340        1.49200       -0.01240
C         -0.03940       -0.02560       -0.06390
O          0.71900       -0.44750       -1.18140
C          0.76940       -1.83190       -1.32260
C          1.62430       -2.21910       -2.52750
C          1.65160       -3.70720       -2.83720
O          2.22480       -1.40550       -3.18180
H          1.01430        1.85340        0.08080
H         -0.44220        1.91320       -0.92570
H         -0.59050        1.85370        0.84380
H          0.38010       -0.45370        0.86270
H         -1.07620       -0.39450       -0.14660
H          1.20160       -2.32280       -0.42940
H         -0.23710       -2.27380       -1.44950
H          1.83090       -4.30190       -1.93520
H          0.68090       -4.01940       -3.24050
H          2.42540       -3.91120       -3.57800
