20
gdb 17674	3.98267	1.40981	1.25292	1.3036	75.23	-0.2419	0.0832	0.3251	1063.5975	0.175903	-348.977994	-348.969318	-348.968374	-349.010837	33.246
C         -0.20070        1.37130       -0.30540
C          0.14630       -0.07690       -0.04300
C          1.59420       -0.52650        0.06630
C          0.69230       -0.53260        1.28140
O          0.88590        0.50760        2.21120
C          0.22190       -1.79940        1.92910
C          0.38960       -3.16110        1.31140
C          1.21790       -2.78060        2.51220
H          0.45460        2.03670        0.26040
H         -0.10210        1.60900       -1.37030
H         -1.23200        1.59030       -0.00780
H         -0.51430       -0.79650       -0.52050
H          1.89620       -1.45520       -0.40600
H          2.34890        0.25320        0.05270
H          1.56640        0.21430        2.82740
H         -0.68590       -1.65500        2.51000
H         -0.41540       -3.87490        1.44620
H          0.89490       -3.24480        0.35600
H          2.27210       -2.58560        2.34170
H          0.99570       -3.24350        3.46720
