20
gdb 8336	5.28294	1.21629	1.21018	1.5205	74.75	-0.2543	0.079	0.3333	1082.9422	0.177471	-348.981771	-348.973924	-348.97298	-349.013861	30.749
O          0.82020        0.42520       -0.87180
C          0.01320       -0.30700        0.01480
C          0.13520       -0.09000        1.54620
C         -1.39980       -0.31790        1.64420
C         -1.85190       -1.69820        2.20140
C         -2.25000       -0.99170        3.52520
C         -2.22530        0.36110        2.76260
C         -1.50350       -0.00210        0.13320
H          0.69830        1.36070       -0.67820
H          0.17810       -1.35730       -0.24270
H          0.80160       -0.74470        2.11460
H          0.39340        0.95350        1.76650
H         -2.72710       -2.08000        1.66560
H         -1.10230       -2.49330        2.25220
H         -3.19010       -1.29180        3.99330
H         -1.45610       -1.05130        4.27470
H         -1.77310        1.22300        3.26240
H         -3.22150        0.64830        2.40960
H         -1.69650        1.06530       -0.03460
H         -2.20340       -0.58470       -0.47260
