15
gdb 6680	5.79846	0.85401	0.79117	3.3685	58.95	-0.2536	-0.0429	0.2107	1361.1669	0.115868	-436.96045	-436.951347	-436.950403	-436.996123	30.411
N         -0.04860        0.31960       -1.07590
C          0.06970        0.00320        0.23600
O          0.81680        0.55200        1.02050
C         -0.83630       -1.13630        0.70570
O         -1.60000       -1.66440       -0.36580
C         -2.48730       -2.69010        0.01470
C         -1.78360       -4.03010        0.20910
O         -2.27490       -4.96780        0.77670
H          0.51280        1.06670       -1.44830
H         -0.69530       -0.17840       -1.66270
H         -0.19420       -1.90030        1.16660
H         -1.49090       -0.73930        1.49530
H         -3.05650       -2.43940        0.92130
H         -3.20580       -2.81200       -0.80590
H         -0.77240       -4.07420       -0.25820
