17
gdb 17766	5.38107	1.24289	1.20391	4.0782	72.82	-0.3096	0.038	0.3475	1032.7771	0.144137	-326.689822	-326.682927	-326.681982	-326.721475	26.43
N          0.03740       -1.15490       -0.02550
C         -0.00830       -0.00800        0.10940
C         -0.03800        1.44500        0.27480
C          1.35310        2.06530        0.09140
C          2.00140        2.22610       -1.32070
C          1.02750        3.41090       -1.59160
C          1.52140        3.60250       -0.12650
C          2.94720        3.27120       -0.65820
H         -0.77150        1.85480       -0.42540
H         -0.40930        1.66820        1.28240
H          2.03100        1.64410        0.84090
H          2.27950        1.42480       -2.00570
H          1.37040        4.15700       -2.31280
H         -0.02720        3.18390       -1.75650
H          1.24500        4.39680        0.56880
H          3.66990        2.89230        0.06930
H          3.39680        4.00910       -1.32660
