18
gdb 13419	5.80711	1.00812	0.9171	0.8498	64.06	-0.2546	0.0786	0.3332	1245.6233	0.15396	-422.066371	-422.057918	-422.056974	-422.100548	29.405
O         -0.11260        1.42960       -0.08870
C          0.01420        0.01610       -0.03780
C         -1.39060       -0.57190       -0.00270
C         -1.39500       -2.09180        0.09130
C         -2.80000       -2.72710        0.09100
O         -2.62710       -3.91920       -0.65850
C         -1.69120       -3.57570       -1.64600
O         -0.76450       -2.68660       -1.05380
H          0.76720        1.80580       -0.18210
H          0.54900       -0.37580       -0.91440
H          0.57200       -0.30240        0.85880
H         -1.92630       -0.15600        0.86030
H         -1.93180       -0.25730       -0.90240
H         -0.83410       -2.41300        0.98060
H         -3.16270       -2.99210        1.08590
H         -3.53030       -2.05910       -0.39280
H         -1.17630       -4.48300       -1.97760
H         -2.18720       -3.08730       -2.50500
