17
gdb 12510	3.52301	1.87368	1.3609	2.1512	70.49	-0.2327	0.0004	0.2331	925.0093	0.143217	-363.865656	-363.858088	-363.857144	-363.897559	28.097
C         -0.57150        1.41120        0.20220
C          0.07480        0.08080       -0.05790
C         -0.04850       -0.57310       -1.21420
C          0.61080       -1.90330       -1.43960
O          0.10760       -2.95490       -0.59070
C          0.22280       -2.82110        0.75240
N          0.56230       -1.86810        1.50650
C          0.89750       -0.51460        1.07750
H          0.17750        2.16050        0.48990
H         -1.10640        1.78220       -0.67600
H         -1.28000        1.34560        1.03750
H         -0.64710       -0.16000       -2.02140
H          0.43210       -2.27050       -2.45150
H          1.69830       -1.83980       -1.29570
H         -0.05330       -3.77360        1.20730
H          1.96760       -0.46850        0.81970
H          0.79020        0.12300        1.96160
