14
gdb 21227	3.49929	1.88303	1.23856	4.9055	60.68	-0.2262	-0.0134	0.2128	926.6816	0.108293	-411.99426	-411.986717	-411.985773	-412.026105	27.359
C         -0.05560        1.43770        0.01530
N          0.01000       -0.01690        0.10040
C         -1.17060       -0.71950        0.03120
N         -2.36750       -0.19750        0.05960
O         -3.23730       -1.27030        0.02090
N         -2.55520       -2.46510       -0.03030
C         -1.29200       -2.14980       -0.02730
N         -0.23910       -3.04670       -0.13840
H          0.95420        1.84180        0.11060
H         -0.50280        1.79200       -0.92340
H         -0.66540        1.81600        0.83910
H          0.73940       -0.43440       -0.46250
H         -0.55100       -4.00920       -0.09800
H          0.48920       -2.88140        0.54660
