17
gdb 5860	4.49244	0.90728	0.90727	5.3939	83.03	-0.2811	-0.0337	0.2474	1341.6161	0.140145	-326.730817	-326.721598	-326.720654	-326.764462	33.197
C         -0.01490        1.54440        0.00350
C          0.00010       -0.00260        0.00620
C          0.75640       -0.52070        1.25240
C         -1.44910       -0.54420        0.00540
C          0.68520       -0.47430       -1.19740
C          1.25100       -0.86430       -2.19250
C          1.88950       -1.30430       -3.31600
N          2.43280       -1.67900       -4.27240
H          1.00140        1.94730       -0.00020
H         -0.54070        1.93120       -0.87340
H         -0.52680        1.90630        0.90080
H          0.24970       -0.17210        2.15790
H          0.78260       -1.61340        1.27020
H          1.78550       -0.15220        1.26900
H         -1.99960       -0.19320       -0.87150
H         -1.46040       -1.63730        0.00300
H         -1.97000       -0.19530        0.90270
