15
gdb 9059	5.14605	0.90149	0.80057	3.8506	68.07	-0.2825	0.015	0.2974	1337.9203	0.116676	-362.639315	-362.630431	-362.629487	-362.673288	31.173
O         -0.06310        1.42390       -0.03450
C          0.02090        0.00140        0.01340
C          0.68120       -0.57080       -1.25680
C         -0.06140       -0.10150       -2.52150
C          0.58030       -0.56530       -3.74810
N          1.10090       -0.93970       -4.70940
C          0.71240       -0.46490        1.21610
C          1.32180       -0.82360        2.18790
H          0.80010        1.77620        0.21050
H         -1.02300       -0.33700        0.04740
H          1.72610       -0.24520       -1.29550
H          0.68760       -1.66360       -1.20100
H         -1.09690       -0.46230       -2.51120
H         -0.10910        0.99180       -2.52950
H          1.84260       -1.14590        3.05610
