17
gdb 7470	3.99716	1.4059	1.31965	5.2603	68.14	-0.2611	0.0274	0.2885	988.4391	0.141261	-363.866899	-363.858614	-363.85767	-363.900159	29.748
C         -0.17220        1.69400       -0.18540
C          0.01460        0.18830       -0.09120
C         -1.30460       -0.55440        0.21260
C         -1.94670       -0.10750        1.44670
N         -2.45800        0.25620        2.41690
C          0.84140       -0.48020       -1.22070
C          1.83640       -0.82630       -0.09640
O          1.02150       -0.16030        0.89170
H          0.78560        2.17730       -0.39360
H         -0.87330        1.95000       -0.98750
H         -0.56190        2.09240        0.75570
H         -2.00480       -0.41390       -0.61960
H         -1.10250       -1.62740        0.29310
H          0.36610       -1.33020       -1.71420
H          1.21200        0.21140       -1.97860
H          1.95490       -1.89410        0.12260
H          2.82970       -0.37100       -0.17860
