17
gdb 15894	2.68263	1.99603	1.27309	4.4454	64.77	-0.2362	0.0088	0.245	975.4842	0.141701	-401.014822	-401.006443	-401.005499	-401.047863	29.818
C         -0.18210        1.52140       -0.12130
N          0.37060        0.18950        0.13220
C          0.93470       -0.42050       -1.05330
C          1.30390       -1.92530       -0.97320
C          1.03070       -2.67860        0.30840
O          0.28990       -2.21990       -2.00520
C         -0.10740       -0.91430       -2.06980
O         -0.98220       -0.44830       -2.72850
H          0.55400        2.23780       -0.52570
H         -0.99950        1.43980       -0.84170
H         -0.58280        1.92580        0.81190
H          1.09050        0.25240        0.84550
H          1.71450        0.18360       -1.55040
H          2.29190       -2.15740       -1.38010
H          0.05880       -2.40260        0.72090
H          1.05220       -3.75570        0.12010
H          1.80260       -2.45100        1.05180
