18
gdb 6455	4.57645	1.2664	1.18548	2.5153	69.23	-0.264	-0.0341	0.2299	1070.6101	0.151987	-384.947771	-384.939453	-384.938509	-384.980372	31.239
C          0.06820        1.61040        0.05640
C          0.05280        0.09020        0.00900
C          1.09000       -0.63320       -0.89290
C          1.31520       -1.69320        0.23770
O          2.62960       -2.05170        0.51900
C          0.61960       -0.69460        1.22370
C          0.47760       -2.92640        0.01650
O          0.94200       -4.03990        0.08900
H          1.07160        1.98320        0.29030
H         -0.23320        2.04130       -0.90480
H         -0.61700        1.99150        0.82160
H         -0.95910       -0.25880       -0.22600
H          0.77370       -0.98550       -1.87850
H          2.01120       -0.05390       -1.00040
H          2.65220       -3.02220        0.49820
H          1.40160       -0.13360        1.74290
H         -0.07990       -1.09690        1.96160
H         -0.59390       -2.75940       -0.21710
