15
gdb 13305	6.03525	1.2264	1.07613	1.798	67.19	-0.2498	0.0173	0.2671	1054.195	0.119034	-362.639192	-362.631668	-362.630724	-362.671761	27.02
C         -0.08600       -1.22630       -0.05180
C         -0.03380       -0.02950        0.03840
C          0.03260        1.42270        0.11960
C          1.46530        1.98280       -0.00080
C          1.50690        3.53650       -0.03120
O          2.36900        3.89150        1.07580
C          2.70560        2.71370        1.65440
N          2.28680        1.62180        1.16970
H         -0.12820       -2.28510       -0.11710
H         -0.57950        1.86090       -0.68030
H         -0.39780        1.76780        1.06840
H          1.92630        1.55290       -0.89620
H          1.93970        3.94620       -0.94670
H          0.52780        3.99710        0.13820
H          3.33960        2.81300        2.52860
