17
gdb 4945	5.00918	1.29319	1.11926	1.7889	71.49	-0.1831	0.0478	0.2309	1081.3646	0.142486	-363.893633	-363.885461	-363.884517	-363.926668	30.121
C          0.02080        1.53250       -0.04410
C         -0.01830        0.00480        0.05990
N         -1.36300       -0.54170        0.03260
C         -2.11970       -0.84720        1.12770
C         -3.37500       -1.23440        0.70530
C         -3.36870       -1.15140       -0.71340
O         -4.38360       -1.44870       -1.57900
C         -2.12290       -0.71840       -1.10840
H          1.05600        1.88800       -0.02270
H         -0.43980        1.87160       -0.97620
H         -0.52000        1.99160        0.78850
H          0.55110       -0.44490       -0.76100
H          0.45240       -0.32460        0.99140
H         -1.70650       -0.76780        2.12100
H         -4.19060       -1.55740        1.33530
H         -5.14410       -1.73170       -1.06390
H         -1.72100       -0.53470       -2.09050
