14
gdb 21272	5.14363	1.51086	1.17793	1.9078	59.64	-0.202	0.0452	0.2472	966.628	0.109261	-412.062993	-412.055362	-412.054418	-412.094935	27.338
C         -0.02480        1.37690        0.03030
O          0.04550       -0.05250       -0.02510
C          0.63460       -0.54660       -1.11070
N          1.16500        0.11300       -2.11970
C          1.61010       -0.90780       -2.92220
N          2.19000       -0.64790       -4.14910
N          1.39760       -2.13170       -2.47250
N          0.74980       -1.87270       -1.28010
H          0.97820        1.81200        0.02460
H         -0.58600        1.76780       -0.82250
H         -0.53650        1.60990        0.96420
H          2.67700        0.23610       -4.17460
H          2.75270       -1.41280       -4.49330
H          0.43590       -2.62080       -0.68800
