13
gdb 12302	3.14531	2.43727	1.4452	4.436	56.05	-0.2796	-0.0596	0.22	803.6309	0.097145	-435.768878	-435.762312	-435.761368	-435.800005	23.95
N         -0.13180        1.18490       -0.48250
C         -0.05540        0.01230       -0.02420
O         -1.18940       -0.62650        0.35260
C         -1.01430       -1.84050        1.07870
C         -0.00380       -2.71750        0.38040
O          1.26880       -2.05270        0.32000
C          1.28380       -0.72630        0.08250
O          2.32240       -0.14220       -0.05360
H          0.81020        1.49950       -0.72020
H         -0.69150       -1.62450        2.10590
H         -1.99470       -2.32040        1.11300
H          0.16780       -3.64780        0.92610
H         -0.33420       -2.95650       -0.63710
