11
gdb 4956	3.28647	2.54423	1.43405	6.1168	55.61	-0.2392	-0.0595	0.1796	769.0111	0.073325	-434.595758	-434.589516	-434.588571	-434.626381	23.026
O         -0.01970       -0.02470        0.16400
C         -0.02310        1.17840        0.06900
N         -1.16920        1.93530        0.00940
C         -1.17420        3.32100       -0.09980
C         -0.02120        3.98510       -0.15220
O          1.19160        3.34970       -0.10220
C          1.28770        1.98300        0.00530
O          2.35970        1.46500        0.04630
H         -2.03640        1.41850        0.05040
H         -2.13360        3.81480       -0.13860
H          0.07360        5.05640       -0.23660
