22
gdb 6411	2.93233	1.29372	1.04475	2.2924	75.16	-0.2467	0.0695	0.3162	1238.6475	0.197446	-387.343309	-387.333031	-387.332087	-387.378637	37.211
C         -0.44120        1.44420        0.07980
C         -0.23210       -0.04910       -0.14750
C          1.12620       -0.52830        0.37040
O         -1.29400       -0.72490        0.53170
C         -1.65330       -2.01250        0.01650
C         -2.13510       -2.85570        1.19150
C         -2.74120       -1.81070       -1.04800
O         -3.83250       -1.07900       -0.52570
H          0.35130        2.02470       -0.40160
H         -1.40330        1.76710       -0.32800
H         -0.43080        1.66740        1.15140
H         -0.29910       -0.25710       -1.22640
H          1.25120       -1.60590        0.22820
H          1.94160       -0.02460       -0.15880
H          1.21900       -0.31190        1.43940
H         -0.77960       -2.49040       -0.44980
H         -2.37280       -3.87180        0.86170
H         -1.36480       -2.90820        1.96470
H         -3.03790       -2.41540        1.62150
H         -2.30670       -1.30440       -1.92630
H         -3.12650       -2.77880       -1.38700
H         -3.43280       -0.35420       -0.02720
