11
gdb 5660	5.57876	2.35948	1.65817	2.5917	56.85	-0.2204	-0.0135	0.2069	683.9873	0.076557	-393.611905	-393.606784	-393.60584	-393.641016	19.802
N         -0.04140        1.35410        0.01030
C          1.28750        1.73630       -0.00080
N          2.14180        0.72100       -0.01470
C          1.30580       -0.34170       -0.01220
C         -0.01780       -0.02040        0.00260
N         -0.80880       -1.14350        0.00420
C          0.08750       -2.09170       -0.00970
O          1.40510       -1.70070       -0.02060
H         -0.83710        1.96900        0.02150
H          1.56980        2.77780        0.00200
H         -0.08580       -3.15560       -0.01380
