17
gdb 2993	6.90313	1.49924	1.38546	2.555	65.49	-0.2414	-0.0067	0.2347	928.7812	0.147281	-309.736028	-309.728155	-309.727211	-309.768579	27.899
C         -0.04010        1.52810        0.07690
C          0.04990        0.00980       -0.04390
C          0.72180       -0.46490       -1.32420
O          1.14080        0.31120       -2.15910
C          0.83880       -1.94300       -1.49980
C          0.74400       -2.48720       -2.91850
C          2.06630       -2.46390       -2.23430
H          0.95480        1.97990        0.05240
H         -0.60720        1.95170       -0.75580
H         -0.52920        1.81470        1.01210
H          0.60110       -0.42710        0.80120
H         -0.94550       -0.45510       -2.43620
H          0.43660       -2.55750       -0.70190
H          0.23590       -3.43530       -3.05160
H          0.56900       -1.74620       -3.69000
H          2.77630       -1.70740       -2.54780
H          2.49450       -3.39560       -1.88300
