20
gdb 6571	3.56145	1.67018	1.44576	1.1243	74.87	-0.2461	0.0821	0.3282	963.7709	0.175615	-348.980105	-348.971709	-348.970765	-349.011952	33.309
C         -0.07970        1.56020        0.07980
C          0.02920        0.03730        0.02690
C         -1.34120       -0.59670       -0.21880
C          1.11960       -0.55690       -0.94580
C          1.76890       -1.26040        0.25250
O          2.22170       -2.56970        0.23400
C          2.21200       -0.26370        1.28280
C          0.75060       -0.65800        1.20310
H          0.88810        2.03670        0.26240
H         -0.46970        1.95530       -0.86540
H         -0.76180        1.87640        0.87750
H         -1.76400       -0.26170       -1.17280
H         -1.27160       -1.68910       -0.24340
H         -2.04680       -0.32440        0.57510
H          0.69120       -1.26210       -1.66200
H          1.74690        0.16290       -1.48350
H          3.15260       -2.56320       -0.01480
H          2.73720       -0.70300        2.12550
H          2.55310        0.73210        1.00850
H          0.24920       -1.11410        2.04960
