14
gdb 19487	3.67402	2.0666	1.86618	1.6777	66.98	-0.2399	-0.009	0.2309	756.4484	0.107994	-341.5259	-341.519338	-341.518394	-341.556483	25.159
C         -0.02620       -1.20850       -0.07660
C         -0.00170       -0.00810       -0.01020
C         -0.01220        1.42290        0.06150
C          0.51560        2.15730        1.25350
C          1.42420        1.41380        2.23150
N          2.60650        1.02630        1.43930
C          2.42560        1.46290        0.26160
N          1.25410        2.23920       -0.02390
H         -0.04090       -2.26880       -0.13730
H         -0.82220        1.89600       -0.48740
H         -0.00140        3.05710        1.57080
H          1.72990        2.06100        3.06030
H          0.96780        0.51630        2.66330
H          3.13300        1.31000       -0.54710
