14
gdb 13651	5.9466	0.9352	0.85705	4.3468	78.96	-0.253	-0.0498	0.2032	1278.4536	0.106717	-341.538287	-341.530378	-341.529434	-341.571023	27.913
C         -0.16690        1.43800       -0.19370
N          0.01990        0.00370       -0.00040
C          1.35920       -0.51790       -0.15840
C          0.73100       -0.45310        1.20950
C          1.23800        0.46740        2.17990
C          1.62710        1.23100        3.03480
C          2.08080        2.09290        3.98930
N          2.46800        2.82890        4.80140
H          0.69590        2.04570        0.11630
H         -0.35460        1.61410       -1.25650
H         -1.04370        1.76500        0.37180
H          1.44900       -1.48460       -0.64590
H          2.16840        0.18340       -0.35540
H          0.32400       -1.36800        1.63420
