12
gdb 23845	3.37764	2.36613	1.39141	4.4329	62.23	-0.2143	-0.034	0.1803	792.989	0.085898	-418.812364	-418.806161	-418.805217	-418.842699	23.651
F          0.03080        0.09970        0.00490
C          0.01710        1.42750        0.01120
N         -1.14110        1.97560        0.02880
N         -1.16070        3.32610        0.03510
C         -0.03420        4.09370        0.02400
C          1.19470        3.52900        0.00530
C          1.33460        2.08560       -0.00310
N          2.46930        1.48040       -0.02070
H         -2.08300        3.72510        0.04920
H         -0.20500        5.16350        0.03100
H          2.08850        4.13820       -0.00360
H          2.32390        0.47000       -0.02340
