12
gdb 605	6.63385	3.00975	2.37975	3.0219	51.35	-0.2579	0.0112	0.2692	543.9463	0.096563	-265.391486	-265.38548	-265.384535	-265.420818	21.063
C         -0.12400        1.48880       -0.10570
N          0.01940        0.04190        0.02400
C          1.34080       -0.51810       -0.16670
C          0.72040       -0.48640        1.20110
C          1.27690        0.39910        2.19580
N          1.69730        1.10670        3.00900
H          0.75220        2.05520        0.24200
H         -0.29580        1.71940       -1.16070
H         -0.99680        1.81420        0.46680
H          1.39390       -1.46390       -0.69810
H          2.17290        0.16280       -0.33810
H          0.29050       -1.39400        1.61500
