8
gdb 3815	10.27057	2.02881	1.69415	1.8736	48.91	-0.3112	-0.0993	0.212	633.6225	0.044061	-354.272548	-354.26739	-354.266446	-354.301614	17.733
N          0.05420       -1.15380       -0.00430
C          0.01050        0.00210        0.00300
C         -0.07160        1.41320        0.01180
C         -1.13530        2.26500        0.03010
N         -0.61350        3.53380        0.03090
N          0.64340        3.49920        0.01330
O          1.05420        2.13710       -0.00050
H         -2.19280        2.06720        0.04300
