15
gdb 9088	6.37429	0.98977	0.89815	4.4598	66.4	-0.2565	0.0159	0.2724	1227.7595	0.116172	-399.74737	-399.738455	-399.737511	-399.781445	31.051
O         -0.49950        0.94550       -0.52420
C          0.00130       -0.34860       -0.20630
C          1.00980       -0.83220       -1.26700
O          0.38670       -0.98260       -2.52850
C          0.33230        0.10150       -3.33490
N         -0.31070        0.04100       -4.41720
C          0.60510       -0.39920        1.12470
C          1.15010       -0.40340        2.19610
H          0.12550        1.59400       -0.18140
H         -0.86730       -1.01570       -0.25170
H          1.85340       -0.13010       -1.31790
H          1.39640       -1.81630       -0.99010
H          0.89930        0.95870       -2.95230
H         -0.22950        0.92320       -4.91790
H          1.60850       -0.41890        3.15460
