22
gdb 7433	3.02745	1.2658	1.22589	2.4684	78.32	-0.2347	-0.0083	0.2264	1189.0066	0.197241	-350.242277	-350.231787	-350.230843	-350.278018	37.32
C         -0.04170        1.50440        0.05230
C          0.03850       -0.03660       -0.00750
C          0.68660       -0.51290       -1.30970
C          0.81870       -0.51740        1.21960
O          2.01440       -0.70410        1.17710
C          0.01620       -0.75140        2.50300
C         -0.52910       -2.19580        2.46710
C          0.86620       -0.50530        3.75190
H          0.96010        1.94050       -0.01510
H         -0.63650        1.88590       -0.78320
H         -0.50320        1.85710        0.98020
H         -0.98460       -0.42800        0.06520
H          1.72710       -0.18240       -1.35730
H          0.68420       -1.60480       -1.37940
H          0.15060       -0.11380       -2.17640
H         -0.84350       -0.06890        2.49610
H         -1.15200       -2.38790        3.34600
H         -1.13860       -2.38380        1.57730
H          0.29660       -2.91450        2.47040
H          1.19750        0.53580        3.80900
H          0.29620       -0.73290        4.65800
H          1.75950       -1.13440        3.73130
