20
gdb 15091	2.37494	1.56857	1.02736	2.0249	71.01	-0.2483	0.0715	0.3198	1168.4014	0.175779	-386.112427	-386.102915	-386.101971	-386.147032	34.172
O         -0.17640        1.40070        0.11330
C         -0.10990       -0.02010        0.11480
C         -1.51640       -0.57260       -0.12940
C         -2.02790       -0.15180       -1.51810
O         -3.39990       -0.45140       -1.73250
C         -1.54010       -2.07690        0.05870
C         -1.66720       -2.68430        1.43650
C         -2.80560       -2.78840        0.45280
H          0.71590        1.74500        0.21070
H          0.57230       -0.38610       -0.67120
H          0.26530       -0.40000        1.07660
H         -2.17250       -0.11170        0.62450
H         -1.82150        0.91530       -1.66940
H         -1.48100       -0.70660       -2.29060
H         -3.91580        0.13900       -1.17470
H         -0.89560       -2.61450       -0.63470
H         -1.09500       -3.57700        1.66380
H         -1.78400       -2.00870        2.27830
H         -3.68690       -2.18180        0.62520
H         -3.01550       -3.75210        0.00280
