18
gdb 10409	2.64738	1.92888	1.42292	4.4304	71.95	-0.2381	0.0279	0.266	955.5871	0.15418	-343.97643	-343.968067	-343.967122	-344.009141	30.769
C          0.03160        1.47570        0.09390
N         -0.10490        0.03600       -0.11980
C          0.68820       -0.50390       -1.20360
C          2.27060       -0.50780       -1.15250
C          2.24710       -1.96370       -1.68280
C          0.75290       -2.06350       -1.28200
C          0.22660        0.06470       -2.47830
N         -0.10690        0.50780       -3.49260
H          1.06740        1.80940        0.27110
H         -0.35060        2.01100       -0.78030
H         -0.57510        1.76480        0.95580
H          0.13250       -0.46640        0.72870
H          2.80250        0.24560       -1.73520
H          2.59560       -0.45200       -0.10910
H          2.37920       -2.00230       -2.76640
H          2.93390       -2.67480       -1.22160
H          0.62200       -2.48110       -0.27910
H          0.05750       -2.55570       -1.96250
