17
gdb 19732	4.0092	2.45514	2.2753	1.286	65.9	-0.222	0.0925	0.3145	691.4085	0.146868	-363.822734	-363.817428	-363.816484	-363.851787	22.88
C         -0.03750        1.48310       -0.03190
C          1.49630        1.38430       -0.01260
C          1.25000        0.10710        0.82870
C          2.37500       -0.86230        0.49370
O          2.88260       -0.38060       -0.76000
C          1.87590        0.51540       -1.24140
C          0.54260       -0.27690       -1.35970
N         -0.04470       -0.03390       -0.00240
H         -0.45530        1.88180        0.89600
H         -0.54700        1.92920       -0.89100
H          2.17950        2.18520        0.27130
H          1.00970        0.22810        1.88440
H          3.17710       -0.83190        1.23990
H          2.02230       -1.89920        0.40850
H          2.25650        1.01190       -2.13310
H         -0.14270        0.09320       -2.12640
H          0.72630       -1.33830       -1.53750
