15
gdb 17599	3.92086	1.63625	1.19988	1.3069	64.	-0.2403	-0.0671	0.1732	978.7413	0.116682	-399.810511	-399.802101	-399.801156	-399.844284	28.769
C         -0.02850        1.38100       -0.24060
C          0.06450       -0.12260       -0.30400
O          1.10280       -0.73890       -0.33290
C         -1.29820       -0.85780       -0.28960
O         -2.32680       -0.26170       -0.04460
N         -1.23450       -2.18080       -0.64890
C         -0.50280       -3.25410       -0.01680
C         -2.00620       -3.25150       -0.06660
H          0.97280        1.81100       -0.21380
H         -0.58090        1.75550       -1.10910
H         -0.60630        1.68310        0.63750
H          0.06170       -3.89850       -0.68390
H         -0.02190       -3.04370        0.93350
H         -2.55490       -3.02210        0.84300
H         -2.52110       -3.90100       -0.76830
