15
gdb 3716	6.85545	1.81699	1.59359	2.2314	62.33	-0.2324	0.0266	0.259	794.2946	0.127511	-304.725676	-304.719005	-304.718061	-304.756886	24.109
C         -0.14630        1.56340        0.00000
C          0.05640        0.03860       -0.03270
C          0.76240       -0.49400        1.18030
C          2.08820       -0.86280        1.30320
N          2.26940       -1.25210        2.58970
N          1.14890       -1.16930        3.32950
C          0.23660       -0.70880        2.47850
H          0.81500        2.08380        0.05540
H         -0.67140        1.90910       -0.89630
H         -0.73390        1.86250        0.87370
H         -0.92070       -0.45000       -0.13150
H          0.62230       -0.23200       -0.93150
H          2.89370       -0.87970        0.58540
H          3.11250       -1.59280        3.01880
H         -0.77660       -0.54830        2.81970
