17
gdb 17396	4.81215	1.637	1.52537	2.7922	67.56	-0.2337	0.0729	0.3066	869.8767	0.143348	-363.785436	-363.778622	-363.777678	-363.816751	26.097
C          0.03640        1.51230       -0.17260
O          1.42330        1.55580        0.23760
C          1.42990        0.14170        0.50900
C          0.00260       -0.01900       -0.04590
C         -1.08660       -0.83430        0.72570
C         -1.29660       -1.67530       -0.53820
N         -1.68540       -0.71830       -1.60330
C         -0.25090       -0.90770       -1.26500
H         -0.61290        2.05120        0.52990
H         -0.11530        1.91300       -1.18120
H          2.22730       -0.38230       -0.03480
H          1.53260       -0.07320        1.58220
H         -0.65310       -1.40140        1.55420
H         -1.96140       -0.27950        1.07530
H         -1.57080       -2.72050       -0.60610
H         -1.86540       -1.26500       -2.44560
H          0.46500       -1.21740       -2.01780
