20
gdb 6917	4.56516	0.98238	0.93632	2.9717	77.05	-0.2423	-0.0179	0.2244	1308.5774	0.174323	-349.010284	-349.000891	-348.999947	-349.044785	33.855
C          0.07510        1.52530       -0.16510
C         -0.02220        0.02150        0.01060
C         -1.31380       -0.56860       -0.52700
C          1.23330       -0.80910       -0.12130
C          0.57190       -0.65130        1.23430
C          1.25260        0.09790        2.36640
C          2.24210       -0.78970        3.09370
O          2.25820       -0.97590        4.28310
H          1.02870        1.93020        0.18280
H         -0.02180        1.79040       -1.22430
H         -0.72630        2.04060        0.37760
H         -1.42060       -0.36610       -1.59930
H         -1.34830       -1.65350       -0.38800
H         -2.18580       -0.13840       -0.02030
H          1.17620       -1.77200       -0.61820
H          2.16900       -0.28310       -0.28680
H          0.01450       -1.51960        1.57890
H          1.81840        0.95070        1.96880
H          0.53440        0.48250        3.09740
H          2.98170       -1.28780        2.42440
