12
gdb 3890	7.85289	2.02596	1.65481	2.4321	50.98	-0.2523	-0.0243	0.228	706.6927	0.09201	-356.685238	-356.679015	-356.67807	-356.715969	21.376
N          0.14460        1.47070       -0.03790
C          0.23690        0.01750       -0.13310
C          0.85480       -0.53470        1.10960
N          0.77430       -0.05870        2.31710
C          1.48190       -0.99310        3.03240
N          1.96700       -1.98170        2.33490
O          1.54770       -1.67470        1.03060
H         -0.47250        1.82270       -0.76170
H         -0.26230        1.72210        0.85790
H         -0.72890       -0.50280       -0.27100
H          0.86350       -0.26410       -0.98660
H          1.63820       -0.93260        4.09960
