18
gdb 7887	3.45299	1.64589	1.19133	2.7283	74.68	-0.2369	-0.0143	0.2226	1036.5263	0.152646	-347.851074	-347.842782	-347.841838	-347.883852	30.626
C         -0.15070        1.59580        0.04980
C          0.01170        0.06960       -0.02400
C          0.76620       -0.45980       -1.21560
C          1.80700       -1.23690       -0.89630
C          2.74900       -1.91230       -1.84120
C          1.94620       -1.38270        0.60000
C          0.83680       -0.48010        1.15710
O          0.65100       -0.22000        2.31710
H          0.81800        2.09740       -0.04060
H         -0.79700        1.95950       -0.75460
H         -0.59400        1.87660        1.00890
H         -0.99160       -0.37990        0.04220
H          0.47710       -0.22120       -2.23440
H          2.49970       -1.69140       -2.88280
H          3.78450       -1.59580       -1.66240
H          2.73120       -3.00180       -1.70910
H          1.79940       -2.41470        0.94880
H          2.92460       -1.07140        0.98910
