14
gdb 1213	8.63684	1.19501	1.06428	3.5015	59.71	-0.2492	0.0266	0.2758	1032.2971	0.11116	-324.582445	-324.573988	-324.573044	-324.617047	28.596
N         -0.05700        1.34660       -0.05600
C          0.07260       -0.00860        0.04270
O          1.15470       -0.55560        0.13240
C         -1.24860       -0.77600        0.02780
C         -1.01970       -2.29460       -0.03400
C         -2.26910       -3.04390       -0.00280
C         -3.31340       -3.63880        0.02420
H          0.77360        1.91130        0.01060
H         -0.95240        1.80220       -0.06960
H         -1.81720       -0.51970        0.93000
H         -1.85840       -0.44650       -0.82110
H         -0.45560       -2.53830       -0.94100
H         -0.37420       -2.59070        0.79920
H         -4.22520       -4.18200        0.04800
