16
gdb 6356	5.28675	1.1333	0.94428	4.3032	64.98	-0.2481	0.0068	0.2549	1214.5913	0.129205	-417.104436	-417.095192	-417.094248	-417.139459	30.992
C         -0.17370        1.28410        0.14590
O          0.02670       -0.10910       -0.10500
C          0.67970       -0.38110       -1.26990
O          1.06860        0.44690       -2.04460
N          0.79130       -1.75910       -1.36010
C          1.38220       -2.52530       -2.37110
C          1.28460       -4.00810       -2.06980
N          1.91690       -1.98690       -3.38880
H          0.78300        1.80900        0.20840
H         -0.77150        1.73960       -0.64770
H         -0.70090        1.33970        1.09870
H          0.38720       -2.25640       -0.58330
H          0.23830       -4.32110       -1.97650
H          1.74910       -4.58920       -2.86740
H          1.78690       -4.25020       -1.12620
H          2.28820       -2.70930       -4.00390
