18
gdb 17846	4.59254	1.89566	1.6288	1.5507	71.8	-0.2353	0.0984	0.3337	841.4653	0.155549	-347.736865	-347.730348	-347.729404	-347.767594	26.038
C         -0.02500        1.38180       -0.30550
C          1.43960        1.55850        0.13580
C          1.27050        0.15190        0.73780
O         -0.09120        0.06920        0.28920
C          2.22000       -1.05590        0.54450
C          3.09750       -0.41210        1.65770
C          1.63540       -0.28680        2.17730
C          1.41500       -1.75120        1.68590
H         -0.74700        2.07090        0.14820
H         -0.19700        1.34730       -1.38760
H          2.16790        1.63610       -0.67380
H          1.61940        2.35750        0.85780
H          2.55430       -1.49190       -0.39820
H          3.73810       -1.10160        2.21180
H          3.62630        0.51240        1.41150
H          1.29720        0.16180        3.11270
H          0.39000       -2.04280        1.45630
H          1.94780       -2.52700        2.24210
