12
gdb 379	7.18808	2.28721	1.83758	4.5745	46.66	-0.2619	0.0215	0.2834	634.7561	0.096396	-302.545112	-302.538187	-302.537242	-302.575574	23.603
N         -0.09360        1.47220        0.01320
C          0.02160        0.01430       -0.02040
C          0.70080       -0.55400       -1.28360
O         -0.07810       -0.09590       -2.37380
C          0.72670       -0.46730        1.17420
N          1.31180       -0.85950        2.08960
H          0.83330        1.88810        0.05740
H         -0.50130        1.76130       -0.87200
H         -0.99650       -0.39550        0.00590
H          1.73660       -0.18570       -1.33410
H          0.72940       -1.65230       -1.23070
H          0.35480       -0.35270       -3.19280
