18
gdb 18513	5.16918	1.10882	1.0369	0.0821	80.62	-0.2377	0.0565	0.2942	1204.515	0.153641	-310.61643	-310.608218	-310.607274	-310.650305	29.762
C          0.00880        1.53200       -0.04890
C          0.01120        0.07650       -0.00250
C          0.01670       -1.12840        0.02730
C          0.01260       -2.57990        0.08800
C          0.22530       -3.28150        1.48790
C         -1.11170       -4.00600        1.30790
C         -2.22150       -3.00620        1.13760
C         -1.34010       -3.31670       -0.03650
H          0.89810        1.91700       -0.56040
H         -0.86930        1.91240       -0.58290
H         -0.00550        1.96430        0.95800
H          0.73180       -2.98430       -0.63080
H          1.09350       -3.94340        1.47710
H          0.29790       -2.61250        2.35000
H         -1.30570       -5.03560        1.58250
H         -3.22150       -3.42440        1.08420
H         -2.16700       -2.03240        1.61830
H         -1.73220       -3.71790       -0.96310
