12
gdb 428	4.87211	4.14032	2.44584	2.1771	46.67	-0.2509	-0.0284	0.2226	517.5463	0.095379	-306.368494	-306.362423	-306.361478	-306.398118	21.28
O          0.57510        1.01510        0.63190
C          0.02260       -0.14100        0.08510
C         -1.52010       -0.28040       -0.18500
C         -1.20670       -1.01220       -1.52790
C          0.19050       -0.38590       -1.41790
O          0.97290        0.06960       -2.20450
H          0.91390        1.54480       -0.10050
H          0.36150       -1.01380        0.66010
H         -2.09210       -0.82950        0.56270
H         -1.97200        0.69930       -0.35370
H         -1.18320       -2.10070       -1.42200
H         -1.78210       -0.74970       -2.41680
