20
gdb 15709	2.69034	1.79385	1.25728	2.0885	70.29	-0.2393	0.0759	0.3152	1024.5822	0.177652	-386.139304	-386.13063	-386.129686	-386.172746	31.651
C         -0.49800        1.44230       -0.06470
C          0.04000        0.01270        0.00530
C          1.12930       -0.29910       -1.05070
O          2.07850       -1.17120       -0.44330
C          1.57090       -1.59980        0.81690
C          0.71510       -0.43490        1.32610
C          1.57970        0.63370        1.99270
O          2.13810        0.05370        3.16530
H          0.29930        2.18320        0.05330
H         -0.97420        1.62710       -1.03360
H         -1.24890        1.62640        0.71060
H         -0.79990       -0.67220       -0.16280
H          0.69790       -0.76910       -1.94560
H          1.65430        0.61000       -1.37410
H          0.96130       -2.51130        0.70570
H          2.41780       -1.82370        1.46920
H         -0.02430       -0.77350        2.05910
H          2.36900        0.96230        1.29900
H          0.96890        1.51280        2.24620
H          2.74950        0.68690        3.55200
