15
gdb 3730	6.79423	2.01952	1.73776	2.2096	62.93	-0.2366	0.0261	0.2626	747.651	0.127378	-304.724717	-304.718192	-304.717248	-304.755771	23.551
C         -0.02040        1.53000       -0.16960
C         -0.05200        0.02870        0.11740
N         -1.39340       -0.52660        0.03740
C         -1.91890       -1.30820       -0.93830
C         -3.23670       -1.54120       -0.60110
C         -3.41150       -0.84480        0.61110
N         -2.29440       -0.22980        0.99460
H          1.00040        1.91130       -0.06960
H         -0.37160        1.74230       -1.18380
H         -0.66300        2.06000        0.53700
H          0.56810       -0.52110       -0.59640
H          0.33230       -0.17540        1.12110
H         -1.32300       -1.63430       -1.77640
H         -3.95590       -2.13080       -1.14580
H         -4.29870       -0.76990        1.22290
