18
gdb 19690	4.69741	1.61665	1.50721	1.6404	70.08	-0.2294	0.0746	0.304	911.7537	0.154253	-347.736695	-347.729712	-347.728768	-347.767968	27.367
C         -0.11490        1.52990        0.00350
C          0.00180        0.00210        0.02790
C          0.68890       -0.56140       -1.20910
C          0.82520       -2.07460       -1.41100
C         -0.47310       -2.49030       -2.12770
O         -1.30670       -1.33730       -2.24580
C         -0.08890       -0.60180       -2.56230
C          0.65780       -1.93950       -2.92240
H          0.87080        2.00530       -0.05880
H         -0.70100        1.86930       -0.85750
H         -0.60820        1.90540        0.90520
H          0.56370       -0.31070        0.91780
H         -0.99260       -0.44850        0.10810
H          1.66230       -0.08560       -1.37840
H          1.44110       -2.77900       -0.86570
H         -0.93020       -3.46940       -2.07680
H         -0.26310        0.27290       -3.18550
H          1.23250       -2.29050       -3.76760
