15
gdb 1040	6.74576	1.93938	1.6488	0.4655	63.28	-0.2123	0.0232	0.2355	775.2868	0.126129	-308.555641	-308.54904	-308.548096	-308.586483	24.157
C         -0.00240        1.55710        0.20630
C         -0.03910        0.04930       -0.09790
C         -1.41900       -0.50840       -0.17120
C         -2.15210       -1.08080       -1.16520
C         -3.43140       -1.40320       -0.60160
C         -3.37980       -1.00120        0.69290
O         -2.16470       -0.45500        0.97300
H          1.02990        1.91420        0.27040
H         -0.51450        2.12560       -0.57580
H         -0.49780        1.77150        1.15710
H          0.45500       -0.15460       -1.05330
H          0.53230       -0.48730        0.67080
H         -1.82140       -1.25460       -2.17750
H         -4.26830       -1.87010       -1.09680
H         -4.07990       -1.02800        1.51150
