12
gdb 679	6.30588	4.67992	3.35105	2.2543	45.53	-0.2557	0.0964	0.3521	430.9118	0.097778	-306.344083	-306.33932	-306.338376	-306.372064	17.597
C         -0.02420        1.50580       -0.04500
O          1.05400        1.96740        0.76230
C          2.05860        0.96210        0.84820
C          1.35070       -0.34600        0.57270
O          0.15760       -0.50670        1.34670
C          0.04190       -0.00440        0.01150
H         -0.94970        1.92090        0.36710
H          0.07500        1.83780       -1.09190
H          2.85490        1.11220        0.10030
H          2.50230        1.01980        1.84750
H          1.90200       -1.24990        0.32930
H         -0.49750       -0.62360       -0.69970
