20
gdb 5819	2.68446	1.67137	1.35394	1.2906	76.22	-0.2596	0.0558	0.3154	1024.5452	0.172779	-348.981874	-348.971809	-348.970865	-349.015662	37.829
C          0.05190        1.53520       -0.07400
C         -0.02090       -0.00040        0.05910
C          0.74150       -0.45580        1.21970
C          1.37770       -0.79930        2.18090
C         -1.48200       -0.55090        0.06570
C         -1.47280       -2.08510        0.06040
C         -2.30230       -0.01710        1.24650
O         -2.02660       -0.07410       -1.17090
H          1.08820        1.84700       -0.22740
H         -0.54850        1.86020       -0.92490
H         -0.31260        2.03130        0.82920
H          0.43940       -0.42960       -0.84100
H          1.94330       -1.11120        3.02370
H         -1.01010       -2.48510        0.96610
H         -2.49820       -2.46880        0.00540
H         -0.92250       -2.45810       -0.80840
H         -2.40030        1.06980        1.19520
H         -3.31010       -0.44810        1.23100
H         -1.83810       -0.28350        2.20010
H         -2.93790       -0.37910       -1.22570
