17
gdb 6828	2.84403	1.79117	1.44595	1.7602	65.16	-0.2371	-0.029	0.2081	923.3961	0.140191	-400.982214	-400.973743	-400.972799	-401.015287	30.961
C         -0.19190        1.50880        0.10450
C          0.00800        0.00260        0.02240
O         -1.20380       -0.68510       -0.13630
C          1.07030       -0.45650       -1.00440
N          2.06650       -0.55790        0.08940
C          1.00190       -0.59470        1.10760
C          1.25660        0.21890        2.35000
O          0.47900        0.29050        3.27030
H          0.77060        2.02630        0.15930
H         -0.72830        1.85910       -0.78250
H         -0.77060        1.78080        0.99480
H         -1.84200       -0.32610        0.49050
H          0.77240       -1.41570       -1.44530
H          1.33780        0.24550       -1.80130
H          2.66540       -1.37480        0.05360
H          0.63630       -1.59130        1.38850
H          2.21180        0.79200        2.33480
