20
gdb 7344	4.23199	0.99484	0.84895	2.9139	72.07	-0.26	-0.0233	0.2367	1396.8221	0.174189	-386.171549	-386.161665	-386.160721	-386.206972	34.947
C         -0.07350        1.52420        0.05240
C          0.11030        0.01060       -0.07850
C          0.51440       -0.64800        1.24280
C          0.64950       -2.15510        1.16250
O          0.22340       -2.80000        0.22570
C          1.36200       -2.89520        2.30120
C          0.72350       -2.62210        3.67010
O          1.37270       -4.27180        2.03680
H          0.84970        2.01310        0.38350
H         -0.35980        1.96990       -0.90480
H         -0.85540        1.76920        0.78010
H         -0.81220       -0.45570       -0.43760
H          0.87050       -0.21160       -0.83590
H          1.45360       -0.22870        1.62810
H         -0.23320       -0.43100        2.02020
H          2.39660       -2.50550        2.31880
H         -0.33240       -2.90920        3.66500
H          1.23520       -3.22460        4.42450
H          0.80700       -1.56930        3.95470
H          0.94400       -4.36530        1.17010
