17
gdb 19312	7.15568	0.80799	0.79971	2.1341	81.04	-0.2281	0.0349	0.263	1460.9294	0.14275	-326.656009	-326.64788	-326.646936	-326.690485	29.088
C         -0.15090        1.38700       -0.14930
C          1.25550        0.97010        0.15720
C          0.16820       -0.08880        0.04150
C         -0.29070       -0.78130        1.20920
C         -0.67750       -1.36570        2.19270
C         -1.13840       -2.08270        3.34710
C         -2.03320       -1.40770        4.33600
N         -2.57100       -2.46040        3.47040
H         -0.72150        1.87160        0.63370
H         -0.38920        1.71520       -1.15470
H          1.99410        1.00860       -0.63550
H          1.64240        1.16950        1.14920
H          0.19040       -0.68410       -0.86710
H         -0.46880       -2.85420        3.71930
H         -1.95410       -1.67220        5.38680
H         -2.30070       -0.37370        4.13950
H         -3.08140       -2.03700        2.69880
