14
gdb 4372	3.98789	1.84429	1.26233	2.8964	68.06	-0.2119	0.0018	0.2137	896.468	0.109993	-378.792238	-378.785593	-378.784648	-378.822652	26.408
N          0.00950        1.36680        0.16660
C          0.03120       -0.01200        0.05820
N         -1.15990       -0.62160        0.09290
C         -1.16090       -1.95780        0.04690
C         -0.02860       -2.74970       -0.04210
C          1.20800       -2.09680       -0.08360
O          2.32560       -2.85940       -0.17220
C          1.24660       -0.70960       -0.03160
H          0.77610        1.86980       -0.25170
H         -0.89870        1.76470       -0.02250
H         -2.14180       -2.42680        0.07940
H         -0.08170       -3.82970       -0.08190
H          3.10040       -2.28680       -0.18480
H          2.19270       -0.17550       -0.04940
