15
gdb 12991	2.79307	2.67331	1.60419	3.8106	61.07	-0.2411	0.0132	0.2543	801.2029	0.119385	-399.827557	-399.820382	-399.819438	-399.858763	26.821
C         -0.08130        1.54000        0.03180
C          0.14640        0.06120        0.01130
O         -0.70890       -0.77560        0.82650
C          0.69640       -0.79620        1.07060
C          1.38800       -1.99110        0.43150
N          1.11980       -1.79210       -0.98450
C          0.44750       -0.64320       -1.30730
O          0.15670       -0.25780       -2.41810
H          0.81990        2.07380       -0.28510
H         -0.88200        1.79880       -0.66700
H         -0.35950        1.87070        1.03490
H          1.02440       -0.42360        2.03640
H          2.46430       -1.97990        0.64810
H          0.97030       -2.93580        0.80010
H          1.29970       -2.49250       -1.68560
