20
gdb 19525	3.49676	1.5871	1.51203	1.4649	74.22	-0.2431	0.0813	0.3244	971.3201	0.178836	-348.999558	-348.991829	-348.990885	-349.031608	29.503
C         -0.03140        1.52350       -0.21270
C         -0.00150        0.07070        0.27880
C         -1.35090       -0.61060        0.13860
C         -1.85330       -1.27530       -1.12570
C         -0.83610       -1.72670       -2.15760
O          0.16940       -2.44890       -1.44840
C         -0.40150       -3.00000       -0.26300
C         -1.56990       -2.10610        0.10920
H          0.94360        2.00450       -0.08610
H         -0.29650        1.57630       -1.27400
H         -0.76930        2.11620        0.34000
H          0.76300       -0.48940       -0.26530
H          0.29280        0.05330        1.33660
H         -2.14130       -0.08370        0.67190
H         -2.86580       -1.08570       -1.46370
H         -1.32870       -2.36630       -2.90800
H         -0.32990       -0.91190       -2.68760
H         -0.76160       -4.02700       -0.43670
H          0.39640       -3.04250        0.48690
H         -2.36950       -2.53920        0.69970
