9
gdb 3939	6.45743	2.98794	2.04274	3.9988	46.16	-0.2619	-0.0944	0.1675	552.7752	0.056727	-371.537915	-371.532929	-371.531984	-371.566733	17.786
O          0.11220        1.29650        0.12330
C          0.07180       -0.02490        0.03210
N          0.09590       -0.58670       -1.17300
C          0.05000       -1.91130       -1.11720
N         -0.01360       -2.64370       -0.00230
N         -0.03310       -1.99460        1.15360
N          0.00860       -0.68260        1.20190
H          0.15560        1.64590       -0.77930
H          0.06520       -2.46000       -2.05510
