15
gdb 20938	7.50616	1.09331	0.96887	4.5497	64.28	-0.2192	-0.0303	0.1889	1162.166	0.118937	-395.951483	-395.943893	-395.942949	-395.984033	27.039
C         -0.06210        1.54420        0.00050
C         -0.03870        0.02360        0.10380
N         -1.35810       -0.53200       -0.16430
C         -1.52590       -1.89540       -0.08090
C         -0.64640       -2.93670       -0.11700
O         -1.35890       -4.07910       -0.05520
N         -2.70430       -3.71690        0.03360
N         -2.78330       -2.45400        0.01670
H          0.93530        1.95440        0.17870
H         -0.39750        1.86140       -0.99080
H         -0.73790        1.97850        0.74590
H          0.65670       -0.38590       -0.64000
H          0.33880       -0.28560        1.09330
H         -2.12520       -0.02340        0.25430
H          0.42270       -3.02590       -0.18320
