18
gdb 13079	4.30309	1.25085	1.04912	1.4047	73.43	-0.2444	0.0503	0.2948	1132.116	0.152098	-347.75396	-347.745313	-347.744369	-347.787618	31.309
C         -0.33360        1.53390       -0.07630
C          0.15520        0.09990       -0.04970
O          1.45590       -0.06110       -0.66400
C          1.90470       -0.90930        0.41340
C          0.66220       -0.56770        1.26080
C          0.93140        0.35610        2.45780
C          1.62180       -0.34010        3.53770
C          2.19390       -0.94040        4.40790
H          0.36460        2.21180        0.42150
H         -0.43950        1.86410       -1.11440
H         -1.31360        1.61790        0.40600
H         -0.58170       -0.54320       -0.55520
H          1.97520       -1.96080        0.10590
H          2.87290       -0.59040        0.81620
H          0.07340       -1.42600        1.59050
H          1.53620        1.21290        2.13610
H         -0.01460        0.76870        2.83080
H          2.69890       -1.45790        5.18540
