15
gdb 19652	5.56955	1.78039	1.68058	2.6906	63.06	-0.2223	0.0576	0.2799	787.5945	0.11927	-362.528566	-362.522267	-362.521323	-362.55892	24.803
O         -0.03890        1.38900        0.02640
C          0.05130       -0.01910       -0.04390
C         -1.32360       -0.60610       -0.13310
C         -1.94830       -2.01340        0.07380
C         -3.20780       -1.52790       -0.65860
C         -3.06260       -1.33740        0.82790
N         -2.43780        0.04640        0.65670
C         -2.54500       -0.13950       -0.84030
H         -0.73690        1.57370        0.67100
H          0.64590       -0.26440       -0.93160
H          0.57330       -0.44380        0.83100
H         -1.53680       -3.00980        0.14490
H         -3.92290       -2.09560       -1.23580
H         -3.66990       -1.64210        1.67070
H         -2.71580        0.69220       -1.51270
