14
gdb 20962	7.71034	1.19325	1.04687	0.5886	59.43	-0.2652	-0.0184	0.2468	1081.3626	0.107674	-415.857234	-415.850054	-415.84911	-415.889381	25.099
C          0.02410        1.50600       -0.06590
C          0.00320       -0.00750        0.00200
O          0.67150       -0.50390       -1.17660
C          0.74970       -1.81800       -1.28980
N          0.26830       -2.67480       -0.41670
O          0.60660       -3.91550       -0.99370
C          1.24170       -3.63470       -2.12950
N          1.37160       -2.37360       -2.38500
H          1.05120        1.87970       -0.09050
H         -0.49560        1.86220       -0.95940
H         -0.47510        1.92080        0.81450
H          0.52400       -0.38720        0.88800
H         -1.01770       -0.40480        0.02130
H          1.58410       -4.47100       -2.72190
