15
gdb 5584	3.41611	1.81731	1.22491	0.7847	64.32	-0.1796	0.0305	0.2101	953.4749	0.118963	-399.807066	-399.799175	-399.798231	-399.83972	28.494
C          0.17210        1.37170        0.19920
N         -0.30360        0.06120       -0.23050
C          0.48360       -0.63020       -1.16020
C          0.75610       -1.96570       -1.16370
O          0.47400       -2.92330       -0.25320
O          1.48860       -2.31850       -2.26100
C          1.69150       -1.17380       -2.96890
C          1.11120       -0.11420       -2.34940
H          1.18580        1.36140        0.63090
H          0.17450        2.06270       -0.64930
H         -0.52050        1.77210        0.94420
H         -0.51110       -0.53590        0.56020
H         -0.13150       -3.57160       -0.63490
H          2.25980       -1.27940       -3.87750
H          1.11380        0.90720       -2.69540
