20
gdb 19478	3.78396	1.5604	1.50773	1.811	73.47	-0.2406	0.0815	0.3221	966.2494	0.178959	-348.989956	-348.982569	-348.981625	-349.021717	28.988
C          0.02890        1.61830        0.06780
C         -0.19530        0.10430       -0.03740
C          0.61860       -0.52570       -1.15770
C          2.15410       -0.75700       -1.08910
C          2.37310       -1.59230        0.19060
C          1.23310       -2.63190       -0.05450
C          0.72820       -2.05480       -1.39410
O          1.98520       -1.80200       -2.09790
H          1.07690        1.85040        0.28670
H         -0.23090        2.12230       -0.86940
H         -0.58140        2.05660        0.86310
H          0.03620       -0.36540        0.92470
H         -1.25920       -0.09450       -0.22280
H          0.39190       -0.04980       -2.11650
H          2.88940        0.00270       -1.35530
H          3.36510       -2.04790        0.19400
H          2.25440       -1.01560        1.11210
H          1.61100       -3.64770       -0.18500
H          0.46980       -2.64360        0.72810
H         -0.00090       -2.62330       -1.97250
