16
gdb 8668	2.54432	1.80214	1.39248	3.4559	62.18	-0.2528	-0.0659	0.1869	950.1977	0.125202	-420.876262	-420.866789	-420.865845	-420.910823	32.038
C         -0.22590        1.27780       -0.21050
O          0.01190       -0.11340       -0.08080
C          0.77850       -0.50980        1.04510
C          2.14130        0.16550        1.20510
C         -0.08000       -0.34620        2.31490
O          0.35550       -0.10880        3.40770
C          0.97360       -2.02620        0.82720
O          1.75150       -2.69890        1.44390
H          0.69310        1.83250       -0.43680
H         -0.92320        1.39550       -1.04260
H         -0.67940        1.70900        0.69350
H          2.04000        1.20660        1.51820
H          2.69810       -0.37090        1.97470
H          2.69830        0.11990        0.26560
H         -1.16780       -0.47540        2.11790
H          0.31550       -2.43130        0.03030
