20
gdb 7504	2.90575	1.3108	1.04013	0.1306	85.32	-0.2233	0.0621	0.2855	1241.5292	0.174431	-311.84664	-311.83669	-311.835746	-311.88239	35.252
C          0.05400        1.48540        0.01750
C          0.02820        0.02930        0.02040
C          0.00500       -1.17630        0.02950
C          0.01940       -2.61690        0.01040
C          1.18050       -3.22820       -0.76200
C         -0.47470       -3.35020        1.25350
C         -1.31330       -3.36510        0.00540
C         -2.63800       -2.64170       -0.05350
H          0.97730        1.86360       -0.43570
H         -0.78530        1.90200       -0.55110
H         -0.00230        1.89030        1.03440
H          2.13990       -2.92100       -0.33340
H          1.13060       -4.32130       -0.73550
H          1.16340       -2.91120       -1.80970
H          0.05620       -4.25090        1.54430
H         -0.81640       -2.74060        2.08280
H         -1.28390       -4.29220       -0.56260
H         -2.59280       -1.69350        0.48860
H         -2.92210       -2.41790       -1.08760
H         -3.43380       -3.25100        0.38920
