24
gdb 9679	4.32722	1.03515	0.96264	0.1225	86.22	-0.2549	0.0854	0.3403	1371.0667	0.221932	-314.274307	-314.264177	-314.263233	-314.308935	37.612
C          0.39310        1.57290        0.07810
C         -0.13930        0.14420       -0.08990
C          0.49380       -0.56940       -1.26810
C          1.81540       -1.29550       -1.13440
C          0.55240       -2.07480       -1.43800
C         -0.01620       -2.98360       -0.36250
C          0.38970       -2.59860       -2.86160
C          1.13640       -3.90720       -3.15050
H          1.47580        1.57120        0.24170
H          0.19580        2.17550       -0.81560
H         -0.07730        2.07570        0.92910
H          0.03990       -0.41490        0.83510
H         -1.22940        0.17580       -0.22030
H          0.36650       -0.02480       -2.20290
H          2.55980       -1.18080       -1.91630
H          2.23650       -1.38480       -0.13680
H          0.11200       -2.56770        0.63950
H         -1.08870       -3.15530       -0.51670
H          0.47790       -3.96100       -0.36990
H         -0.68010       -2.73590       -3.07320
H          0.74060       -1.82980       -3.56100
H          1.03150       -4.19030       -4.20260
H          2.20560       -3.80570       -2.93510
H          0.75380       -4.73760       -2.54920
