22
gdb 10780	2.5121	1.897	1.43251	1.4889	76.7	-0.2484	0.0578	0.3062	1007.5602	0.199355	-350.200581	-350.191183	-350.190239	-350.233706	35.717
C         -0.89510        1.17530       -0.13310
C         -0.09010       -0.11240       -0.00480
C          1.17860       -0.34130       -0.89640
C          1.87720        0.89620       -1.45800
C          1.86570       -0.98610        0.35000
O          3.22530       -0.73110        0.61310
C          0.76520       -0.38270        1.28070
C          1.20070        0.82840        2.10430
H         -0.28000        2.06980        0.00060
H         -1.36580        1.24420       -1.12010
H         -1.69520        1.21130        0.61450
H         -0.77250       -0.95680       -0.15040
H          1.01830       -1.04360       -1.72110
H          2.05370        1.67220       -0.70530
H          2.84810        0.62270       -1.88370
H          1.28120        1.35490       -2.25330
H          1.78650       -2.07620        0.31430
H          3.35330        0.22170        0.65550
H          0.31870       -1.11360        1.96290
H          1.63530        1.63030        1.49770
H          0.35160        1.26180        2.64210
H          1.94990        0.53270        2.84580
