21
gdb 3269	3.10332	2.83981	1.69947	0.0016	73.41	-0.2965	0.0793	0.3757	820.4532	0.198509	-275.007113	-275.000051	-274.999107	-275.037827	27.867
C         -0.02890        1.48990       -0.04800
C          1.35760        2.15420        0.00490
C          2.03720        2.05160        1.38240
C          2.81880        0.75330        1.66660
C          2.21050       -0.55960        1.13430
C          0.67810       -0.68540        1.21230
C         -0.05320       -0.04350        0.02090
H         -0.63100        1.89570        0.77750
H         -0.53810        1.79770       -0.97000
H          2.00900        1.74070       -0.77730
H          1.23020        3.21500       -0.24210
H          2.72830        2.89280        1.51230
H          1.26430        2.18880        2.14990
H          3.83090        0.84570        1.25280
H          2.95150        0.67300        2.75290
H          2.50680       -0.70190        0.08690
H          2.67340       -1.38860        1.68260
H          0.41700       -1.75040        1.23100
H          0.30550       -0.26900        2.15830
H         -1.10150       -0.36770        0.02770
H          0.38110       -0.45110       -0.90320
