14
gdb 17226	5.45874	1.70232	1.5509	4.6477	66.5	-0.2414	0.0152	0.2567	808.3272	0.109479	-341.522979	-341.516979	-341.516035	-341.553004	23.676
N          0.09960       -1.08440       -0.08380
C          0.04170        0.07070       -0.02790
C         -0.03970        1.48960        0.04140
C         -1.13360        2.35230        0.67890
C         -0.45400        3.53000       -0.05700
N          0.86080        3.63070        0.67810
C          1.22010        2.39030       -0.03660
C          0.17240        2.50360       -1.09300
H         -2.11200        2.11010        0.25930
H         -1.17540        2.41890        1.76830
H         -0.98010        4.45520       -0.27550
H          1.39640        4.38150        0.24200
H          2.21420        1.96330       -0.05600
H          0.14680        2.35730       -2.16440
