17
gdb 20920	3.1018	1.98022	1.33875	4.8987	70.21	-0.2439	0.0065	0.2504	943.8134	0.143019	-360.057154	-360.04912	-360.048176	-360.090019	28.576
C         -0.01500        1.57910        0.01460
C          0.02190        0.04970        0.02640
N          0.65000       -0.48820        1.22360
N          1.98590       -0.70130        1.23210
N          2.30780       -1.13280        2.41680
C          1.18430       -1.19720        3.17940
C          0.10230       -0.78510        2.43290
C         -1.34900       -0.66710        2.75490
H          0.99850        1.98140        0.08760
H         -0.46570        1.93520       -0.91650
H         -0.60260        1.97140        0.84980
H         -0.98640       -0.36820       -0.04660
H          0.60340       -0.32640       -0.81810
H          1.20900       -1.53660        4.20290
H         -1.70650        0.36630        2.68380
H         -1.96770       -1.27590        2.08550
H         -1.52880       -1.01070        3.77580
