16
gdb 18412	3.32846	2.23683	1.49813	0.3571	59.43	-0.2671	0.064	0.3311	822.9556	0.132478	-420.842851	-420.836397	-420.835453	-420.873393	25.126
C          0.00270        1.39990        0.12530
O          1.26260        1.99720       -0.03420
C          2.16020        1.78660        1.04570
C          2.84780        0.42970        0.97190
O          2.78640       -0.40410        2.13530
C          2.04890       -0.80170        0.97320
C          0.52960       -0.72650        1.04830
O         -0.02960        0.00570       -0.03210
H         -0.40910        1.66810        1.11620
H         -0.62450        1.80610       -0.67090
H          2.89840        2.59140        0.98900
H          1.64030        1.86710        2.01160
H          3.81000        0.40790        0.46100
H          2.46030       -1.67230        0.46320
H          0.09540       -1.72880        0.99350
H          0.24510       -0.28320        2.01380
