19
gdb 2110	4.27689	2.22425	1.60383	1.4344	66.9	-0.2575	0.0809	0.3384	810.0618	0.174115	-310.945132	-310.93822	-310.937276	-310.975523	27.4
O         -0.07360        1.44470        0.01110
C          0.01290        0.02460        0.00780
C          0.77630       -0.50930        1.22610
C          0.76700       -2.04510        1.26950
C         -0.66690       -2.59340        1.23090
C         -1.43880       -2.04980        0.01970
C         -1.41640       -0.51490       -0.01980
H          0.82100        1.79510        0.07050
H          0.53120       -0.31860       -0.90600
H          1.80840       -0.13360        1.21240
H          0.30210       -0.10330        2.12940
H          1.32700       -2.43670        0.40890
H          1.28970       -2.39930        2.16480
H         -0.65310       -3.68900        1.21240
H         -1.18940       -2.30310        2.15280
H         -0.98900       -2.44500       -0.90180
H         -2.47410       -2.40760        0.03500
H         -1.94940       -0.10780        0.84950
H         -1.92850       -0.13640       -0.91050
