12
gdb 21641	6.05196	1.64379	1.2943	4.3305	60.81	-0.2284	-0.0673	0.1611	857.1968	0.085761	-410.860843	-410.854421	-410.853477	-410.891253	24.529
N          0.00600        1.37570       -0.08290
C          0.02760       -0.00640       -0.03480
N         -1.14730       -0.63700        0.00900
N         -1.18470       -1.96410       -0.01960
C         -0.02890       -2.61370       -0.07280
O         -0.10970       -3.95370       -0.09560
N          1.19530       -2.06570       -0.10010
C          1.22290       -0.74850       -0.08710
H          0.78100        1.84880        0.35700
H         -0.89290        1.76250        0.17110
H          0.79770       -4.28290       -0.13250
H          2.19570       -0.26090       -0.11610
