17
gdb 11876	4.71302	1.52509	1.3106	3.7689	68.55	-0.2369	0.0374	0.2743	948.1923	0.144044	-363.898201	-363.891058	-363.890114	-363.929692	27.576
O         -0.11720        0.13500       -0.70620
C         -0.09350        1.25470       -0.24650
C         -1.21250        1.97340        0.51860
C         -0.73590        3.41520        0.61180
C         -1.53030        4.53310       -0.01450
C         -1.38170        4.44760        1.48760
C          0.78520        3.36550        0.43190
N          0.96670        2.12260       -0.29670
H         -2.16800        1.84820        0.00500
H         -1.30320        1.49660        1.50290
H         -0.99220        5.31810       -0.53620
H         -2.49500        4.29000       -0.44750
H         -2.24570        4.15230        2.07370
H         -0.74210        5.17520        1.97790
H          1.16320        4.22420       -0.13420
H          1.30740        3.34690        1.40100
H          1.85940        1.80540       -0.64000
