13
gdb 21146	5.24453	1.69298	1.29007	0.3153	66.12	-0.2543	-0.0934	0.1608	887.9636	0.095377	-394.744813	-394.737739	-394.736795	-394.77676	24.695
C         -0.01680        1.42840       -0.14550
N          0.00520       -0.02540       -0.15040
C         -1.05330       -0.65110        0.15110
O         -2.22690       -0.00170        0.48440
N         -3.38060       -0.72700        0.81350
C         -3.27260       -2.00490        0.78420
N         -2.15700       -2.77990        0.46740
C         -1.10550       -2.10700        0.16750
H          0.96970        1.80140       -0.42610
H         -0.75910        1.82390       -0.85130
H         -0.27740        1.82560        0.84440
H         -4.17950       -2.54120        1.04270
H         -0.18440       -2.62370       -0.09390
