17
gdb 20757	3.26572	1.94914	1.24899	3.2531	71.45	-0.2373	0.005	0.2422	979.3325	0.140662	-363.886015	-363.877314	-363.87637	-363.919557	30.396
C          0.02970        1.49730       -0.02020
C          0.06690        0.00410        0.03150
N          0.15590       -0.69380       -1.07440
O          0.16700       -2.02960       -0.67670
C          0.08350       -2.09390        0.66730
C          0.08270       -3.45710        1.26330
C          0.01620       -0.83730        1.19000
C         -0.08610       -0.40420        2.61790
H          0.86660        1.93200        0.53740
H          0.08580        1.83850       -1.05550
H         -0.89300        1.88430        0.42630
H         -0.76250       -4.04700        0.89310
H          0.99880       -3.99890        1.00520
H          0.01190       -3.39990        2.35120
H          0.76140        0.22630        2.91130
H         -0.99640        0.17920        2.79960
H         -0.10620       -1.26170        3.29570
