18
gdb 8455	3.89077	1.82412	1.6639	2.2269	66.91	-0.2419	0.0826	0.3246	855.4821	0.154593	-384.928271	-384.921172	-384.920228	-384.959089	28.705
C          0.00720        1.48000        0.12570
C         -0.03170       -0.01380       -0.02140
C          0.68070       -0.80030       -1.15390
C          0.69410       -1.84160       -0.02550
O          0.81740       -0.74940        0.94450
C         -0.78590       -2.22370        0.19460
O         -0.97790       -2.84690        1.44400
C         -1.37090       -0.77300        0.11120
H          1.03110        1.85460        0.04190
H         -0.60190        1.95300       -0.65150
H         -0.39270        1.78010        1.09980
H          0.13170       -1.01540       -2.07460
H          1.67700       -0.40790       -1.36380
H          1.44590       -2.62270        0.08420
H         -1.18370       -2.90430       -0.56200
H         -0.51160       -2.28840        2.08070
H         -1.90750       -0.51930        1.02870
H         -2.03560       -0.61220       -0.74200
