11
gdb 130	18.87188	2.54729	2.47133	4.0425	40.48	-0.2778	0.0091	0.2868	510.9124	0.089832	-268.307873	-268.301991	-268.301047	-268.337439	18.727
C         -0.04700        1.35690        0.15620
C          0.25370       -0.06630       -0.28660
O          1.16600       -0.69500        0.62600
C          0.68820       -1.64800        1.44520
O          1.36220       -2.20080        2.26120
H          0.87780        1.93150        0.25430
H         -0.68680        1.85220       -0.58090
H         -0.56170        1.36650        1.12160
H         -0.66560       -0.66170       -0.35990
H          0.74220       -0.08210       -1.26500
H         -0.38580       -1.86260        1.27220
