20
gdb 17609	3.91789	1.29356	1.13033	2.5558	76.25	-0.2385	-0.0093	0.2292	1148.8798	0.175526	-349.023774	-349.014551	-349.013606	-349.058173	33.309
C         -0.11970        1.45080        0.16150
C          0.05290       -0.07180       -0.02610
C          0.78790       -0.40180       -1.32580
C          0.77680       -0.64650        1.19240
O          1.93740       -1.00230        1.14330
C         -0.00800       -0.73450        2.46050
C          0.32100       -1.88770        3.39930
C          0.74110       -0.50770        3.76700
H          0.85650        1.94610        0.18850
H         -0.68980        1.87270       -0.67170
H         -0.64700        1.69430        1.08860
H         -0.95060       -0.52010       -0.04520
H          1.80350        0.00180       -1.30540
H          0.86980       -1.48230       -1.47230
H          0.25940        0.02400       -2.18440
H         -1.04170       -0.41050        2.41750
H         -0.50650       -2.34580        3.92870
H          1.09070       -2.56570        3.04880
H          1.79190       -0.26290        3.66410
H          0.21150        0.01230        4.55700
