24
gdb 12699	3.10054	1.62305	1.27881	0.1582	84.16	-0.2902	0.0734	0.3636	1095.6343	0.224126	-314.299616	-314.290378	-314.289434	-314.332844	35.518
C         -0.83660        1.21390       -0.00320
C          0.08790       -0.00250       -0.00010
C          1.14290       -0.00180       -1.13550
C          2.32320       -0.86650       -0.61670
C          1.91030       -1.33770        0.80090
C          3.08640       -1.66040        1.72120
C          0.91920       -0.24780        1.28620
C          1.60450        1.01360        1.82950
H         -0.27400        2.14990        0.07710
H         -1.41450        1.25970       -0.93280
H         -1.55080        1.17950        0.82730
H         -0.53890       -0.89560       -0.13180
H          0.72210       -0.38110       -2.07150
H          1.47440        1.02250       -1.34050
H          2.54320       -1.71530       -1.27100
H          3.24320       -0.27340       -0.56300
H          1.31860       -2.25650        0.68470
H          3.75060       -0.79880        1.84610
H          2.74680       -1.96920        2.71630
H          3.68780       -2.47850        1.30990
H          0.27620       -0.64930        2.07980
H          2.26830        1.47630        1.09070
H          0.86750        1.76600        2.12550
H          2.20640        0.78510        2.71400
