19
gdb 13703	5.21346	0.84288	0.76852	1.2815	82.93	-0.2312	0.0458	0.277	1541.0924	0.164387	-327.882316	-327.872924	-327.87198	-327.917683	33.062
C          0.01430        1.64080        0.05270
C         -0.01420        0.10190        0.00830
C          0.64960       -0.45020       -1.16790
C          1.21470       -0.88370       -2.14050
C          1.85390       -1.39160       -3.32330
N          3.18000       -2.04750       -3.17220
C          2.03100       -2.85670       -3.59130
C          1.55640       -3.91870       -2.63310
H          1.04350        2.00940        0.06340
H         -0.48600        2.06410       -0.82260
H         -0.49340        2.00620        0.95040
H          0.46240       -0.29880        0.91230
H         -1.05510       -0.24600        0.03890
H          1.71830       -0.76940       -4.20640
H          3.76220       -1.80990       -3.97130
H          1.98010       -3.13320       -4.64430
H          1.59770       -3.55210       -1.60540
H          0.52430       -4.20860       -2.85770
H          2.18530       -4.81220       -2.70710
