14
gdb 7300	4.46681	1.18407	1.01028	6.006	58.81	-0.2819	-0.0091	0.2728	1093.0464	0.106286	-415.904565	-415.89605	-415.895106	-415.938278	29.869
N         -0.00270        1.27350       -0.08960
C          0.04180       -0.07780        0.00110
O          1.07320       -0.71580        0.11760
C         -1.30930       -0.81880       -0.00200
O         -1.07670       -2.17590       -0.21320
C         -2.02830       -0.58390        1.35630
C         -3.34260       -1.21710        1.39420
N         -4.39370       -1.69580        1.41670
H          0.86880        1.77750       -0.13990
H         -0.84620        1.75800       -0.34510
H         -1.94610       -0.42550       -0.80700
H         -0.11940       -2.28960       -0.07910
H         -1.40350       -0.99880        2.15460
H         -2.14750        0.48730        1.55350
