16
gdb 17951	3.24822	2.26699	2.09753	0.8729	62.81	-0.2215	0.0701	0.2916	742.4748	0.131979	-383.69911	-383.692827	-383.691883	-383.729121	25.605
O         -0.06700        1.42710       -0.05510
C          0.01790        0.05510       -0.02170
C         -1.15210       -0.88270       -0.11820
C         -1.00210       -1.84700       -1.29640
C          0.44930       -1.59400       -1.80120
C          1.10210       -0.88550       -0.62090
O          1.00530       -1.76200        0.55350
C         -0.12330       -1.01800        1.01370
H          0.65090        1.79050        0.47610
H         -2.12430       -0.50790        0.18330
H         -1.13370       -2.88530       -0.97900
H         -1.74480       -1.64360       -2.07260
H          0.97410       -2.51570       -2.06690
H          0.45850       -0.93210       -2.67560
H          2.11970       -0.51360       -0.76040
H         -0.36040       -1.03890        2.07080
