15
gdb 13297	5.14946	1.22113	1.09251	3.981	67.61	-0.2447	-0.0062	0.2386	1059.9353	0.119278	-362.676941	-362.669367	-362.668423	-362.709863	26.383
N         -0.07310       -1.09940        0.49580
C         -0.04030        0.01540        0.19460
C          0.01510        1.43320       -0.17880
C          1.40970        1.99550       -0.12240
C          2.09700        2.56970       -1.10360
C          3.43730        3.01440       -0.59460
O          3.45650        2.64570        0.78230
C          2.23880        2.00310        1.13750
H         -0.40190        1.54740       -1.18430
H         -0.64770        1.98240        0.50420
H          1.77090        2.71060       -2.12670
H          4.26850        2.52560       -1.12690
H          3.58500        4.10140       -0.69360
H          1.74500        2.55400        1.95510
H          2.43860        0.98570        1.50800
