22
gdb 7492	3.67979	1.14644	1.05347	1.9733	77.85	-0.2417	0.0729	0.3147	1248.9605	0.199239	-350.193282	-350.183841	-350.182897	-350.228404	34.083
C         -0.09210        1.59840        0.14700
C          0.00080        0.07070        0.08610
C         -1.36650       -0.59590       -0.11400
C         -1.36040       -2.12910       -0.09040
C         -0.50560       -2.74500       -1.19650
C         -1.14700       -2.75960        1.31360
O         -2.48210       -3.29960        1.33480
C         -2.77660       -2.75320        0.03490
H          0.89360        2.05300        0.28660
H         -0.51850        2.00530       -0.77670
H         -0.73030        1.92440        0.97570
H          0.67860       -0.21640       -0.72630
H          0.45830       -0.30350        1.01170
H         -2.05070       -0.24010        0.66830
H         -1.79660       -0.25870       -1.06810
H          0.55180       -2.48540       -1.08340
H         -0.58010       -3.83720       -1.18340
H         -0.83070       -2.39840       -2.18440
H         -0.38420       -3.54760        1.36770
H         -0.97950       -2.04960        2.13460
H         -3.60710       -2.03530        0.06910
H         -3.01480       -3.53660       -0.69680
