11
gdb 75	10.44045	4.04692	2.98547	3.5648	39.51	-0.2436	0.0599	0.3034	428.404	0.091713	-264.504487	-264.498452	-264.497508	-264.533633	20.274
C          0.00920        1.45020       -0.03190
N         -0.01430       -0.00050       -0.01780
C         -1.21580       -0.67250        0.04420
N         -1.09730       -2.04640       -0.16000
O         -2.28600       -0.12890        0.24200
H          0.89660        1.81890        0.49120
H          0.00230        1.86390       -1.04910
H         -0.88560        1.79940        0.48350
H          0.75260       -0.47510       -0.46720
H         -0.24880       -2.48770        0.16380
H         -1.93420       -2.53900        0.11480
