18
gdb 4485	3.45687	1.71271	1.17023	0.3628	76.96	-0.1968	0.0313	0.228	1054.9627	0.152466	-347.859515	-347.850706	-347.849762	-347.892842	31.413
C          0.12470        1.45530       -0.07270
C         -0.06210       -0.01910       -0.04590
C         -1.15210       -0.82760       -0.07610
C         -0.67480       -2.18600       -0.02190
C         -1.51950       -3.42280       -0.03060
C          0.68400       -2.09670        0.03780
C          1.78310       -3.09540        0.11150
O          1.06830       -0.78090        0.02370
H          0.72080        1.77130       -0.93690
H         -0.84680        1.95150       -0.12880
H          0.64050        1.81360        0.82590
H         -2.18170       -0.50630       -0.13060
H         -2.13060       -3.48550       -0.93880
H         -0.91080       -4.32980        0.01860
H         -2.21030       -3.44350        0.82050
H          2.46410       -3.00980       -0.74350
H          2.38420       -2.96760        1.01960
H          1.37490       -4.10830        0.11730
