18
gdb 292	4.47958	2.66966	2.28942	1.414	59.83	-0.2613	0.0684	0.3297	675.0478	0.164151	-272.843742	-272.8356	-272.834656	-272.875156	29.475
C         -0.04040        1.53230        0.03610
C          0.06130        0.00160       -0.03010
C          0.73580       -0.44540       -1.33540
C          0.77110       -0.54280        1.22420
C          0.75900       -2.06840        1.33670
O          2.10710       -0.04000        1.20200
H          0.95610        1.98260        0.04990
H         -0.58340        1.92680       -0.82880
H         -0.56750        1.85780        0.93990
H         -0.95750       -0.40940       -0.00640
H          1.77940       -0.12010       -1.35780
H          0.71760       -1.53240       -1.45780
H          0.22320       -0.00970       -2.19890
H          0.23920       -0.13270        2.10030
H          1.22090       -2.38750        2.27870
H         -0.26530       -2.45580        1.32600
H          1.31630       -2.52990        0.51710
H          2.56580       -0.37830        1.97670
