18
gdb 8364	5.36283	1.20049	1.17869	1.3186	69.14	-0.2344	0.0722	0.3066	1092.7227	0.152581	-384.855947	-384.847987	-384.847043	-384.889135	28.929
C         -0.14770        1.37990       -0.55560
O         -0.24450        0.00790       -0.85880
C          0.89130       -0.72280       -0.45630
C          0.66580       -2.15830       -0.83170
C         -0.37020       -3.17480       -0.28580
C          0.66820       -3.91510       -1.15930
C          0.55290       -2.81030       -2.23410
O          1.74250       -3.12550       -0.50250
H         -0.04400        1.55200        0.52720
H          0.71070        1.84970       -1.06100
H         -1.06740        1.85620       -0.90350
H          1.80380       -0.35150       -0.95220
H          1.05180       -0.64770        0.63240
H         -0.30070       -3.37300        0.78460
H         -1.39810       -3.10470       -0.64790
H          0.83820       -4.98460       -1.27890
H         -0.39090       -2.70680       -2.77370
H          1.43090       -2.68920       -2.87000
