19
gdb 6149	4.55964	1.18057	1.16733	4.3713	74.27	-0.2383	0.0289	0.2673	1120.5531	0.164373	-365.082965	-365.074123	-365.073178	-365.1175	31.621
C         -0.35090        1.61070       -0.04620
C          0.01610        0.13080        0.01310
C         -1.19580       -0.76570       -0.22360
C          1.26560       -0.24890       -0.85800
N          1.97040       -0.58990        0.37660
C          0.86440       -0.26410        1.27130
C          3.21780       -1.02240        0.65350
O          3.64000       -1.23860        1.77210
H          0.52440        2.24600        0.12390
H         -0.77270        1.87230       -1.02310
H         -1.09780        1.85800        0.71630
H         -1.64170       -0.57250       -1.20570
H         -0.92260       -1.82510       -0.18040
H         -1.96720       -0.58720        0.53370
H          1.11380       -1.09490       -1.53880
H          1.71110        0.58240       -1.41710
H          1.08750        0.55190        1.96720
H          0.49240       -1.12180        1.84210
H          3.82160       -1.16050       -0.26800
