22
gdb 6027	2.2857	1.7872	1.43663	2.4116	77.93	-0.2463	-0.0184	0.2279	1043.9711	0.196897	-350.228065	-350.217939	-350.216995	-350.262139	37.531
C          0.02680        1.51440       -0.04890
C         -0.05690       -0.02090       -0.01460
C          0.88930       -0.57180        1.06350
C         -1.51570       -0.54460        0.11340
C         -1.56150       -2.09050        0.21630
C         -2.29110        0.05090        1.30590
C         -2.30650       -0.23480       -1.15680
O         -1.85460        0.14980       -2.20400
H          1.04610        1.82610       -0.29850
H         -0.64120        1.94060       -0.80050
H         -0.21600        1.95570        0.92400
H          0.29660       -0.38150       -0.98820
H          0.57080       -0.28440        2.07210
H          0.97000       -1.66150        1.03430
H          1.89560       -0.16660        0.91630
H         -1.20890       -2.42440        1.19570
H         -2.58590       -2.46090        0.09550
H         -0.94120       -2.55820       -0.55450
H         -2.36610        1.13990        1.24790
H         -3.30940       -0.35160        1.34380
H         -1.80380       -0.20540        2.25110
H         -3.40020       -0.43900       -1.05300
