16
gdb 19420	4.17126	2.02191	1.63506	2.11	70.33	-0.2309	0.0068	0.2377	806.3221	0.133011	-342.730051	-342.723788	-342.722844	-342.760167	25.457
C         -0.00580        1.51380       -0.04020
N          1.24580        0.74680        0.05560
C         -0.04750        0.02880        0.00620
C         -0.46200       -0.77930        1.19050
C         -0.99230       -1.95010        0.82290
C         -1.04390       -2.06020       -0.66620
N         -1.91820       -1.01870       -1.28940
C         -0.45710       -0.79850       -1.19100
H         -0.25570        2.09110        0.84590
H         -0.26770        1.99240       -0.98040
H          1.69750        0.69870       -0.85580
H         -0.34770       -0.41330        2.20350
H         -1.37640       -2.71110        1.49050
H         -0.93770       -3.01560       -1.16840
H         -2.12710       -1.30600       -2.24550
H          0.13650       -0.75880       -2.09990
