17
gdb 12139	5.04337	1.52909	1.41168	3.0196	68.87	-0.2382	0.0775	0.3158	931.7148	0.141604	-363.796919	-363.789581	-363.788637	-363.828189	28.459
C          0.08270        1.52720       -0.01090
C         -0.07960        0.04990        0.13290
C         -1.38070       -0.78320        0.04960
C         -0.71180       -1.77920        1.03340
C         -1.36530       -2.46300        2.16890
N         -0.75120       -3.23290        1.06430
C          0.54940       -0.94100        1.03100
O          0.96430       -0.81010       -0.34140
H          1.10140        1.82520        0.25090
H         -0.10850        1.84020       -1.04370
H         -0.61940        2.06150        0.63720
H         -2.26060       -0.28830        0.46970
H         -1.60530       -1.16040       -0.95200
H         -0.85620       -2.55870        3.12470
H         -2.44930       -2.40850        2.23800
H         -1.47000       -3.57760        0.43240
H          1.31240       -0.83890        1.79460
