18
gdb 6482	3.21575	1.59854	1.33162	1.9822	63.88	-0.247	0.0651	0.3121	970.4828	0.1524	-422.055605	-422.047064	-422.04612	-422.088135	32.553
O          0.02190        1.13080       -0.44940
C         -0.12650       -0.27360       -0.23810
C         -1.58470       -0.49040        0.14510
O         -1.90430        0.29990        1.26600
C         -2.56230       -0.41950       -1.07350
C         -2.57500       -1.96380       -1.11770
O         -1.67960       -2.41020       -2.12640
C         -1.96700       -1.97970        0.31460
H          0.95640        1.33040       -0.54990
H          0.11580       -0.84960       -1.13940
H          0.51330       -0.61530        0.59000
H         -1.46830        1.15000        1.11970
H         -3.52530       -0.01030       -0.76170
H         -2.21690        0.08210       -1.97920
H         -3.55490       -2.44370       -1.23050
H         -1.54360       -3.35520       -2.00170
H         -1.16150       -2.69640        0.50540
H         -2.73270       -2.07990        1.08790
