10
gdb 2120	3.86078	3.68965	1.90999	4.5755	45.7	-0.2906	-0.0619	0.2287	598.0989	0.067909	-396.486664	-396.481088	-396.480144	-396.516349	19.388
N         -0.02600        1.29760        0.00960
C          0.00270        0.04130        0.00320
O          1.09990       -0.76590       -0.00820
C          0.67540       -2.12430       -0.01180
O         -0.73860       -2.13610       -0.00240
C         -1.21360       -0.85460        0.00710
O         -2.36790       -0.57200        0.01630
H          0.91550        1.69390        0.00510
H          1.04120       -2.61790       -0.91800
H          1.05330       -2.62650        0.88460
