16
gdb 13029	2.57896	2.5135	1.63199	1.9921	59.55	-0.2309	0.0588	0.2896	815.1089	0.130182	-420.84639	-420.838964	-420.83802	-420.877678	28.698
O         -0.07450        1.44800        0.09910
C         -0.01710        0.03200       -0.00020
C          0.64320       -0.64750        1.22680
O         -0.05780       -1.86530        1.46740
C         -1.34630       -1.72680        0.92290
C         -2.17370       -0.51340        1.29780
C         -1.40900       -0.56850       -0.01450
O         -2.08140       -0.65230       -1.22910
H          0.80390        1.80040       -0.07440
H          0.47610       -0.27000       -0.93490
H          1.69870       -0.89270        1.07820
H          0.56210        0.03660        2.08380
H         -1.82570       -2.67760        0.72520
H         -3.24790       -0.63690        1.21420
H         -1.84350        0.15440        2.08510
H         -2.40050        0.23220       -1.44230
