15
gdb 3035	10.59289	1.0954	1.06573	2.9672	61.77	-0.2587	0.0331	0.2918	1059.6836	0.125976	-304.687053	-304.679807	-304.678863	-304.718938	25.36
N         -0.04150       -1.13260       -0.03770
C         -0.00800        0.02130       -0.08950
C          0.06370        1.47910       -0.14800
C          1.44690        2.02120        0.27770
C          1.50080        3.52940        0.20500
C          2.77240        4.22890       -0.09510
N          1.68090        4.21330       -1.08770
H         -0.17270        1.80200       -1.16820
H         -0.71790        1.89410        0.49880
H          1.66260        1.68600        1.29860
H          2.22080        1.58800       -0.36670
H          0.78520        4.03660        0.85140
H          2.97880        5.20020        0.34450
H          3.65380        3.62010       -0.28110
H          1.89450        3.53080       -1.81260
