16
gdb 7967	3.76144	1.64991	1.19787	3.7679	68.96	-0.2417	-0.0485	0.1932	984.6653	0.130106	-383.783498	-383.775755	-383.774811	-383.815613	28.657
C         -0.11290        1.47660        0.05260
C         -0.00140       -0.00900       -0.02310
C         -0.05680       -0.77080       -1.13250
C          0.13540       -2.18200       -0.77930
O          0.39070       -3.13410       -1.48640
C          0.03160       -2.28510        0.75200
O          0.96180       -3.20010        1.27180
C          0.22950       -0.83790        1.22680
H          0.78660        1.90880        0.50810
H         -0.25780        1.92950       -0.93070
H         -0.95260        1.76480        0.69760
H         -0.16000       -0.41560       -2.15030
H         -1.00220       -2.60000        0.98100
H          1.10470       -3.84710        0.56490
H          1.25710       -0.70980        1.58860
H         -0.43730       -0.54330        2.04410
