20
gdb 8543	3.79459	2.15854	1.78296	0.1776	77.9	-0.2541	0.0902	0.3443	833.4919	0.178897	-311.8377	-311.830941	-311.829997	-311.867967	28.261
C          0.06190        1.53650        0.01900
C         -0.01950        0.02710        0.00130
C          0.45580       -0.71620       -1.27880
C         -0.69580       -1.74160       -1.13470
C         -0.43290       -2.80500       -0.03980
C         -0.76120       -1.76390        1.05890
C          0.37910       -0.74230        1.29210
C         -1.35480       -0.81650       -0.04710
H          1.10660        1.87190        0.05340
H         -0.39510        1.97360       -0.87630
H         -0.44770        1.95560        0.89430
H          0.30690       -0.08630       -2.16240
H          1.48270       -1.09900       -1.29570
H         -1.19070       -2.07030       -2.04920
H         -1.19710       -3.58810       -0.07050
H          0.55340       -3.28220       -0.01510
H         -1.30960       -2.11070        1.93540
H          1.40340       -1.12600        1.36250
H          0.17730       -0.13030        2.17790
H         -2.36390       -0.40970       -0.07310
