16
gdb 2751	4.32357	2.21715	1.68273	4.1063	64.54	-0.3022	0.0285	0.3306	766.5848	0.137534	-288.653249	-288.646142	-288.645198	-288.684339	25.986
C         -0.16320        1.52720       -0.00610
C         -0.00970        0.01150       -0.03470
C          1.19650       -0.49830       -0.87900
C          2.02030       -0.68030        0.42220
C          0.68760       -0.61380        1.23210
C          0.67120        0.13060        2.47910
N          0.66210        0.74250        3.46070
H          0.78580        2.02610        0.21750
H         -0.50970        1.88840       -0.97990
H         -0.88700        1.84060        0.75210
H         -0.97070       -0.45390       -0.26820
H          0.98670       -1.45060       -1.37280
H          1.59410        0.19800       -1.62070
H          2.60590       -1.59410        0.53490
H          2.66270        0.17580        0.63620
H          0.30050       -1.61920        1.42050
