16
gdb 10906	3.25525	2.01365	1.43254	2.7236	65.45	-0.2371	-0.0244	0.2127	896.4736	0.128219	-383.726727	-383.718713	-383.717769	-383.75892	29.171
C         -0.00320        1.63100       -0.06960
C          0.01900        0.10890       -0.04380
C          0.74570       -0.64390       -1.17330
O          2.11300       -0.24520       -1.10490
C          1.68370       -1.34290       -0.25420
C          2.42210       -2.63670       -0.31030
C          1.00740       -0.62830        0.91960
O          1.09710       -0.70760        2.10860
H          0.98190        2.02030       -0.33800
H         -0.73520        2.00580       -0.79210
H         -0.27120        2.02240        0.91640
H         -0.98180       -0.30380        0.13960
H          0.36400       -0.98950       -2.12710
H          2.62680       -2.91650       -1.34700
H          3.37580       -2.55660        0.22090
H          1.83890       -3.43140        0.16470
