15
gdb 17750	3.944	2.60392	2.16091	1.1458	62.68	-0.2268	0.0629	0.2896	671.9665	0.119946	-362.565354	-362.559561	-362.558617	-362.594793	24.044
O         -0.09960        1.36680        0.05330
C         -0.00320       -0.01440        0.06250
C          0.51130       -0.85780        1.26160
C         -0.33100       -1.96050        0.60340
C         -1.29670       -0.91320       -0.02990
C         -0.86310       -1.41310       -1.43060
C          0.45530       -0.77670       -1.20870
N          0.24130       -2.20100       -0.79630
H          0.77970        1.73660       -0.08650
H          1.58590       -1.02090        1.38530
H          0.05890       -0.51780        2.19830
H         -0.62530       -2.87840        1.10710
H         -2.27040       -0.60700        0.34140
H         -1.38230       -1.73200       -2.32580
H          1.26760       -0.55530       -1.89160
