15
gdb 15321	2.90277	1.59367	1.17554	5.67	63.79	-0.2475	-0.0228	0.2247	1003.7984	0.117672	-399.814974	-399.806838	-399.805893	-399.849324	28.2
O          0.25970        0.79440        1.29200
C          0.14650        1.46550        0.29260
N          1.17490        1.76770       -0.55590
C          2.47350        1.18360       -0.40510
C          3.64590        1.90950       -0.96270
C          3.49670        1.79350        0.55090
C          3.18050        3.02010        1.32010
O          3.64290        3.27600        2.40330
H         -0.80830        1.92030       -0.03850
H          0.95380        2.22560       -1.42680
H          2.48440        0.09750       -0.43110
H          4.43950        1.34520       -1.43700
H          3.46850        2.89100       -1.39280
H          4.14380        1.09700        1.07120
H          2.47930        3.71850        0.81070
