13
gdb 21262	5.61418	1.65878	1.29087	3.9531	62.53	-0.24	-0.0585	0.1815	881.6608	0.097121	-394.790538	-394.783906	-394.782962	-394.821568	23.602
C         -0.02810        1.41610        0.03140
O          0.01510       -0.01640       -0.02590
C          0.61630       -0.56540       -1.07810
C          0.66790       -1.97560       -1.15080
N          1.24730       -2.58360       -2.16380
N          1.79730       -1.84240       -3.14250
C          1.72010       -0.52630       -3.02370
N          1.15060        0.17420       -2.02930
H          0.98180        1.83330        0.04720
H         -0.56430        1.82170       -0.83020
H         -0.55460        1.65110        0.95600
H          0.23130       -2.59400       -0.37340
H          2.17230        0.04820       -3.82760
