22
gdb 16698	3.29914	1.77939	1.54783	0.0491	81.4	-0.2787	0.0943	0.3731	969.1211	0.202496	-313.06888	-313.061217	-313.060273	-313.100165	31.171
C         -0.12440        1.57160       -0.03060
C          0.01270        0.05310       -0.03050
C          1.14890       -0.58060       -0.89610
C          2.10810       -0.28470        0.29400
C          0.83430       -0.60090        1.13050
C          0.66510       -2.11470        0.85420
C         -0.64780       -2.73690        1.32670
C          0.87100       -2.08470       -0.70530
H          0.82400        2.09110        0.13130
H         -0.53170        1.92150       -0.98590
H         -0.81410        1.89540        0.75700
H         -0.97880       -0.38300       -0.19910
H          1.35890       -0.23220       -1.90910
H          2.97410       -0.94160        0.42460
H          2.42830        0.75540        0.35160
H          0.72580       -0.27100        2.16590
H          1.48950       -2.65990        1.32880
H         -1.51950       -2.22450        0.90640
H         -0.71130       -3.78880        1.02700
H         -0.73330       -2.69820        2.41860
H         -0.02550       -2.41020       -1.24380
H          1.70450       -2.71340       -1.03250
