10
gdb 8974	4.85409	0.91515	0.79252	3.259	68.84	-0.2888	-0.1036	0.1852	1304.6084	0.056781	-380.079348	-380.071185	-380.07024	-380.113353	26.423
O         -0.46610        0.48920        0.84750
C          0.00040        1.14870       -0.04930
C          1.22830        1.90300        0.06260
C          2.25320        2.54260        0.12910
C          3.46590        3.33160        0.22460
O          3.44580        4.51030        0.51130
C          4.68000        2.59680       -0.05020
C          5.69020        1.98400       -0.27860
H         -0.48500        1.22570       -1.04210
H          6.58780        1.44960       -0.47810
