14
gdb 6426	3.85318	1.5668	1.35131	4.0871	64.	-0.2741	0.0056	0.2797	920.3766	0.10476	-382.536798	-382.529105	-382.528161	-382.568709	28.544
C         -0.26690        1.66560       -0.02840
C         -0.01130        0.16580       -0.07730
C          0.83690       -0.35380       -1.27130
C          1.88430       -0.64320       -0.20060
O          2.98630       -1.08190       -0.14280
O          1.10870       -0.19150        0.83620
C         -1.19590       -0.61710        0.23130
C         -2.18840       -1.25060        0.46910
H          0.65430        2.21110       -0.25050
H         -1.03060        1.94010       -0.76120
H         -0.61860        1.95600        0.96440
H          0.45260       -1.23990       -1.77630
H          1.12880        0.40020       -2.00390
H         -3.06150       -1.81560        0.68660
