21
gdb 1141	4.65341	1.75304	1.64537	0.0846	74.65	-0.2778	0.0823	0.36	900.4961	0.19399	-274.991042	-274.982821	-274.981877	-275.022667	31.76
C         -0.88200        1.06600       -0.46070
C          0.13490       -0.03470       -0.19900
C          1.42880       -0.07420       -1.05950
C          2.25750       -0.40780        0.22330
C          2.51320       -1.91010        0.36790
C          3.54860        0.38170        0.41470
C          1.02950        0.06280        1.06840
H         -0.40670        2.05370       -0.43500
H         -1.35300        0.94970       -1.44360
H         -1.67880        1.06140        0.29200
H         -0.36700       -1.00780       -0.23060
H          1.47020       -0.79450       -1.88230
H          1.67760        0.91660       -1.45540
H          3.23940       -2.25770       -0.37630
H          2.91330       -2.14590        1.36110
H          1.59550       -2.49250        0.23320
H          3.37530        1.45840        0.31300
H          3.97800        0.20480        1.40830
H          4.30340        0.09330       -0.32700
H          1.14160        1.10050        1.40140
H          0.75430       -0.54890        1.93300
