13
gdb 15284	5.1358	1.14479	1.01111	3.4214	64.85	-0.2782	-0.0111	0.2672	1096.2234	0.093415	-361.411309	-361.403453	-361.402509	-361.444208	27.626
C          0.03670       -1.14450       -0.36900
C          0.00670        0.00860       -0.03500
C          0.00020        1.40740        0.37680
C          1.37800        2.03490        0.26820
O          1.77270        2.53760       -1.00230
C          1.57340        3.48490        0.04880
C          0.44450        4.38100       -0.08550
N         -0.44950        5.10910       -0.16830
H          0.04960       -2.16230       -0.67220
H         -0.70600        1.98410       -0.23030
H         -0.33750        1.48870        1.41850
H          2.16920        1.51460        0.80790
H          2.47710        3.96030        0.42530
