16
gdb 18930	3.6916	2.46993	1.97416	0.3421	62.47	-0.2414	0.063	0.3045	726.902	0.131824	-383.683838	-383.677863	-383.676919	-383.713641	24.394
C         -0.01820        1.52760       -0.00110
C          0.07220        0.00650        0.02700
C          1.06540       -0.61990       -0.97910
O          2.32470        0.02340       -0.61410
C          2.26450       -0.77760        0.56420
C          1.48660       -1.90360       -0.11650
O          0.57350       -2.06210        0.96680
C          0.80850       -0.64340        1.22160
H          0.97430        1.98020        0.04460
H         -0.50560        1.87340       -0.91870
H         -0.60830        1.89460        0.84510
H         -0.91640       -0.45550       -0.04860
H          0.86230       -0.61530       -2.04820
H          3.16970       -0.83080        1.16540
H          1.86060       -2.81430       -0.57970
H          0.60200       -0.33350        2.24420
