16
gdb 16232	2.97904	2.27934	1.50197	2.7368	65.3	-0.2452	0.0045	0.2498	844.4634	0.130584	-383.722744	-383.715577	-383.714632	-383.754567	27.433
O          0.06310        1.51340        0.13380
C         -0.01810        0.09910       -0.01650
C          0.74790       -0.66770        1.03200
C         -0.00850       -1.56060        1.67110
C         -1.42670       -1.59910        1.16070
C         -1.44220       -0.48480        0.10960
C         -2.62820        0.31200       -0.22430
O         -2.16260       -0.71700       -1.10230
H         -0.16340        1.71780        1.04840
H          0.35600       -0.08660       -1.02990
H          1.79830       -0.47460        1.21780
H          0.33660       -2.21570        2.46390
H         -1.66920       -2.55880        0.68770
H         -2.16450       -1.44930        1.95890
H         -3.57260        0.10460        0.27900
H         -2.49700        1.33000       -0.58510
