15
gdb 18092	4.44071	2.21216	1.64749	0.9912	65.55	-0.232	0.0053	0.2373	761.7245	0.123166	-358.860259	-358.854291	-358.853347	-358.890556	22.701
C          0.03960        1.57690       -0.02490
N          1.46980        1.86560        0.20540
C          2.05130        0.75600        0.41670
N          1.27490       -0.41600        0.31660
C          1.13840       -1.30920        1.39830
N         -0.03580       -1.54070        1.82430
C         -0.96130       -0.68760        1.05130
C         -0.10400        0.03010       -0.02720
H         -0.55170        2.06130        0.76320
H         -0.27430        2.01360       -0.97670
H          3.10590        0.66520        0.65910
H          2.03120       -1.76600        1.81460
H         -1.74190       -1.30670        0.60130
H         -1.45840        0.01000        1.73810
H         -0.35530       -0.33390       -1.02670
