13
gdb 4664	5.52366	1.40044	1.12501	4.4861	63.44	-0.254	-0.0521	0.2019	991.5059	0.095266	-398.649091	-398.641945	-398.641	-398.680907	24.925
C          0.06550        1.47590       -0.01890
C         -0.06110       -0.00280        0.00630
N         -1.10780       -0.73350       -0.17880
C         -0.65680       -2.04640       -0.04340
C         -1.49740       -3.23990       -0.17130
O         -2.68050       -3.24050       -0.40880
C          0.67860       -2.01950        0.22380
O          1.07940       -0.72730        0.26000
H          0.77540        1.79500       -0.78860
H         -0.91210        1.90860       -0.23070
H          0.42670        1.85440        0.94250
H         -0.93270       -4.18900       -0.02550
H          1.43040       -2.77070        0.40040
