16
gdb 13200	5.20301	1.28088	1.1702	1.2326	61.6	-0.2481	-0.0043	0.2439	1053.882	0.129663	-420.881447	-420.873073	-420.872129	-420.916176	27.987
C         -0.46630        1.44090       -0.52540
O         -0.29320        0.01680       -0.52700
C         -0.87180       -0.63580        0.49370
O         -1.46590       -0.09770        1.39420
C         -0.71560       -2.14280        0.32180
C         -1.10420       -2.98930        1.54660
C         -2.27000       -3.47820        0.66450
O         -1.83030       -2.65860       -0.44680
H          0.05270        1.80400       -1.41220
H         -1.52760        1.69710       -0.56950
H         -0.03550        1.87870        0.37850
H          0.24140       -2.36700       -0.16110
H         -0.37640       -3.74890        1.83230
H         -1.39270       -2.39470        2.41250
H         -2.26160       -4.54220        0.40230
H         -3.27350       -3.19770        1.00280
