16
gdb 16693	4.40844	1.66479	1.53819	1.6859	65.85	-0.2365	0.0052	0.2417	874.527	0.130622	-383.696308	-383.689413	-383.688469	-383.72712	27.144
C         -0.04760        1.43850        0.08580
C         -0.02540       -0.04760        0.00220
C         -0.03190       -0.89850       -1.03500
C          0.05440       -2.24810       -0.34240
O         -0.87590       -2.08920        0.79340
C          0.06140       -1.02170        1.17680
C          1.21240       -1.98900        0.69650
O          1.52010       -3.03900        1.54940
H          0.83370        1.82230        0.61490
H         -0.06820        1.89320       -0.90830
H         -0.92460        1.79340        0.64140
H         -0.04970       -0.70540       -2.09780
H         -0.06040       -3.18000       -0.89420
H         -0.04150       -0.67410        2.20490
H          2.14460       -1.55090        0.33430
H          0.66940       -3.39610        1.84180
