12
gdb 5152	6.43649	1.33109	1.11049	2.7651	58.63	-0.2619	-0.0129	0.249	964.9434	0.085446	-377.565209	-377.558622	-377.557677	-377.596865	23.085
N         -0.58930       -0.48890       -1.21780
C         -0.20420        0.19870       -0.37360
C          0.29860        1.07460        0.68310
C          1.54950        1.80180        0.28610
C          2.25970        1.76810       -0.86640
O          3.32300        2.61560       -0.72680
C          3.19010        3.11860        0.51890
N          2.16480        2.68010        1.17190
H         -0.48360        1.79490        0.95160
H          0.48330        0.47670        1.58390
H          2.16560        1.24790       -1.80330
H          3.93900        3.82410        0.84240
