15
gdb 5124	3.46184	2.03046	1.2939	1.251	64.02	-0.1719	0.0568	0.2287	899.1381	0.118208	-399.819234	-399.810911	-399.809967	-399.851941	29.949
C         -0.10320        1.44420        0.01270
N          0.07900        0.00920       -0.01260
C          0.19590       -0.78710       -1.13830
C          0.28760       -2.09960       -0.74090
C          0.20380       -2.10750        0.68180
O          0.31590       -3.15330        1.57800
C          0.07090       -0.80190        1.08810
O         -0.03540       -0.26090        2.32920
H          0.28960        1.86790       -0.91380
H         -1.15980        1.72120        0.10770
H          0.44210        1.87300        0.85640
H          0.20760       -0.33940       -2.11830
H          0.41520       -2.95550       -1.38550
H         -0.37080       -3.80000        1.38520
H          0.04460       -0.99600        2.94910
