18
gdb 14307	3.6108	1.78331	1.68463	0.8171	67.5	-0.2443	0.0905	0.3348	880.5788	0.153153	-384.926939	-384.919111	-384.918167	-384.959126	29.196
C         -0.05960        1.61340        0.07320
C          0.03960        0.10760        0.07460
C          1.33070       -0.63660       -0.21480
O          2.52490        0.10490       -0.10880
C          2.87620        0.06570        1.27090
C          3.70220        1.27010        1.65220
O          1.64230        0.04840        1.98200
C          0.74750       -0.67390        1.16670
H          0.84850        2.06820        0.46900
H         -0.21260        1.99010       -0.94330
H         -0.90190        1.94620        0.68830
H         -0.83830       -0.40950       -0.30990
H          1.37180       -1.48100       -0.89520
H          3.41980       -0.87460        1.47490
H          3.15060        2.18970        1.44410
H          3.94290        1.23090        2.71750
H          4.63390        1.27520        1.08100
H          0.30510       -1.54910        1.63110
