20
gdb 16529	2.70699	2.23771	1.67579	1.7303	73.68	-0.238	0.0723	0.3102	887.6602	0.177433	-348.973994	-348.966071	-348.965127	-349.006259	30.317
C         -0.54830        1.45070       -0.04430
C         -0.06610        0.00720        0.03320
C          1.14480       -0.45390       -0.87210
C          1.80370        0.52680       -1.83190
C          1.92860       -0.82860        0.40820
O          2.69890        0.26720        0.95340
C          1.67260        0.55940        1.93140
C          0.71330       -0.46090        1.30520
H          0.26750        2.17110        0.06330
H         -1.03100        1.64720       -1.00760
H         -1.28380        1.65940        0.74090
H         -0.92480       -0.65110       -0.13100
H          0.86890       -1.36660       -1.41260
H          2.20270        1.39260       -1.29860
H          2.64000        0.05010       -2.35500
H          1.09580        0.87800       -2.59000
H          2.48380       -1.77130        0.43380
H          2.00490        0.29040        2.94320
H          1.37850        1.61510        1.92730
H          0.20360       -1.15260        1.97520
