14
gdb 2666	11.72045	1.1009	1.02328	4.2459	58.16	-0.2646	-0.0243	0.2403	1092.5114	0.111501	-361.734339	-361.726517	-361.725573	-361.766972	26.043
C         -0.08370        1.23610       -0.03140
C         -0.00000       -0.29110       -0.07780
N         -1.09920       -1.03000       -0.68380
C         -2.10130       -0.43430       -1.14410
O         -3.16320       -1.08510       -1.72540
C         -3.34260       -2.42540       -1.48360
O         -4.17580       -3.04290       -2.06870
H          0.81570        1.63420        0.44690
H         -0.14610        1.67220       -1.03400
H         -0.94700        1.58120        0.54720
H          0.90910       -0.59520       -0.61170
H          0.11820       -0.68520        0.93960
H         -2.28620        0.64010       -1.18330
H         -2.66300       -2.80790       -0.71180
