17
gdb 12948	2.67454	2.12203	1.66302	2.329	69.28	-0.2372	-0.0208	0.2164	873.6979	0.140783	-363.844019	-363.835939	-363.834995	-363.876278	29.794
C         -0.05820        1.56300       -0.00860
C          0.08190        0.05890        0.10180
N          1.26810       -0.72140       -0.27110
C          2.46980        0.09630        0.11790
C          2.02870        0.02720        1.59010
O          2.57440        0.21190        2.64130
C          0.76940       -0.69420        1.19840
C          0.17380       -1.85270        1.94040
H          0.75980        2.11740        0.45400
H         -0.12670        1.86250       -1.06020
H         -0.98410        1.87470        0.48480
H         -0.81160       -0.46390       -0.23960
H          3.38580       -0.47950       -0.04160
H          2.56280        1.06650       -0.37500
H         -0.38660       -1.49760        2.81180
H         -0.51150       -2.41260        1.29840
H          0.95170       -2.53410        2.29770
