20
gdb 14749	10.63344	0.57227	0.55298	4.3653	77.63	-0.2464	0.0237	0.2701	1975.5751	0.176548	-345.193122	-345.183305	-345.18236	-345.228722	33.67
C          0.00220        1.57200        0.01820
C         -0.00110        0.04120        0.00600
C         -1.41360       -0.55250        0.00770
C         -1.42020       -2.07990        0.00450
N         -2.78640       -2.59800       -0.03360
C         -2.83450       -4.05330        0.01260
C         -4.21750       -4.53860        0.02370
N         -5.30640       -4.92240        0.05650
H          1.02220        1.96830        0.01520
H         -0.51520        1.97560       -0.85900
H         -0.50410        1.96180        0.90820
H          0.54160       -0.31970       -0.87760
H          0.55320       -0.33380        0.87650
H         -1.95760       -0.19120        0.89250
H         -1.97430       -0.19660       -0.86480
H         -0.89840       -2.44880       -0.88910
H         -0.84890       -2.45700        0.87470
H         -3.31920       -2.21950        0.74370
H         -2.33740       -4.45120       -0.88130
H         -2.31230       -4.49800        0.88070
