16
gdb 14951	4.58063	1.47011	1.17526	1.9601	61.04	-0.2598	-0.0337	0.226	978.0548	0.130759	-420.883085	-420.875811	-420.874867	-420.915166	26.489
O         -0.88440        1.11370        0.12560
C          0.25570        0.73930        0.04770
C          1.45230        1.67610        0.05170
C          1.30910        2.85400        1.02130
C          2.63950        3.60890        1.05730
O          3.71090        2.71130        1.33020
C          3.76270        1.68090        0.38690
O          2.59360        0.89450        0.36930
H          0.53070       -0.33390       -0.04570
H          1.55150        2.06910       -0.98010
H          0.48650        3.50170        0.70610
H          1.07790        2.46940        2.01950
H          2.81500        4.11660        0.09340
H          2.65710        4.36310        1.84730
H          3.93430        2.10000       -0.62400
H          4.58470        1.02140        0.67000
