14
gdb 21082	3.47328	2.40624	1.43413	2.6668	67.54	-0.2334	-0.0598	0.1736	818.2538	0.109103	-378.76287	-378.756135	-378.755191	-378.793846	24.907
C         -0.02940        1.44500       -0.00230
N         -0.00640       -0.01430       -0.00010
N         -0.04440       -0.60940       -1.19630
C         -0.02520       -1.91450       -1.22530
C          0.03350       -2.71340       -0.04970
C          0.07180       -2.10170        1.16030
C          0.05370       -0.65480        1.25620
O          0.08290        0.00920        2.28060
H          0.86760        1.83230        0.48730
H         -0.07630        1.76940       -1.03990
H         -0.89580        1.80450        0.55840
H         -0.05740       -2.35790       -2.21380
H          0.04670       -3.79520       -0.13700
H          0.11690       -2.64420        2.09690
