20
gdb 18264	4.09234	1.56098	1.29033	1.1251	74.59	-0.2423	0.0834	0.3257	1012.5586	0.178593	-348.996268	-348.988559	-348.987614	-349.028266	29.691
C          0.08570        1.33860        0.10860
O         -0.16250       -0.03040       -0.10470
C          0.55480       -0.58080       -1.19490
C          2.07040       -0.77780       -0.92150
C          2.48140       -2.00430       -1.76410
C          1.21420       -2.84410       -1.87260
C          0.43240       -3.09170       -0.60820
C          0.03230       -1.96460       -1.52880
H          1.12630        1.53700        0.40700
H         -0.13140        1.93720       -0.79120
H         -0.57490        1.66700        0.91520
H          0.41940        0.07150       -2.07540
H          2.66370        0.10820       -1.15990
H          2.19970       -0.97310        0.14780
H          2.79280       -1.69060       -2.76760
H          3.32490       -2.54730       -1.32320
H          1.14770       -3.57760       -2.66870
H         -0.21810       -3.95910       -0.59180
H          0.87450       -2.85680        0.35400
H         -0.90880       -2.03680       -2.06140
