15
gdb 2718	10.97899	0.8812	0.85421	5.1011	55.52	-0.2783	0.0081	0.2864	1267.3873	0.123202	-382.803358	-382.795011	-382.794067	-382.837443	27.209
O         -0.29470        1.32360        0.36340
C         -0.03470       -0.02650        0.02180
C         -1.37980       -0.73480       -0.09480
C         -1.22980       -2.20860       -0.44990
O         -2.51490       -2.81000       -0.65340
C         -2.98910       -3.62890        0.30310
O         -4.06170       -4.14850        0.23850
H          0.54570        1.78580        0.43250
H          0.51020       -0.10140       -0.93380
H          0.58560       -0.52130        0.78790
H         -1.91850       -0.63500        0.85420
H         -1.98350       -0.23690       -0.86030
H         -0.68200       -2.33740       -1.38860
H         -0.68430       -2.75230        0.33350
H         -2.27500       -3.76870        1.13960
