13
gdb 4987	3.44954	2.38234	1.40995	3.4242	63.6	-0.2191	-0.0139	0.2053	804.9863	0.098235	-394.842162	-394.835506	-394.834562	-394.872588	25.639
N         -0.05290        1.37490       -0.11410
C         -0.01700        0.01240       -0.05360
N         -1.16300       -0.66290        0.02420
C         -1.08200       -1.99700        0.03550
N          0.01660       -2.73830       -0.01410
C          1.16980       -2.04930       -0.08300
C          1.21820       -0.67340       -0.10700
O          2.35370        0.08520       -0.17090
H          0.79520        1.87790        0.08560
H         -0.92500        1.80770        0.14370
H         -2.02810       -2.52920        0.09550
H          2.09180       -2.63080       -0.11900
H          3.12460       -0.49250       -0.18280
