15
gdb 12348	3.27375	2.23595	1.38529	4.0405	64.29	-0.2475	-0.0184	0.2291	845.4506	0.121394	-396.001485	-395.99453	-395.993586	-396.032507	26.707
O         -0.01310        1.40300        0.09100
C          0.01850        0.00760       -0.01030
C         -1.39820       -0.58150        0.00320
N         -1.42510       -2.02610       -0.22270
C         -0.52320       -2.49370       -0.98040
N          0.50030       -1.76240       -1.59090
C          0.74740       -0.44030       -1.26690
N          1.51060        0.38440       -1.86470
H          0.65000        1.72240       -0.54220
H          0.57510       -0.43530        0.83680
H         -1.87570       -0.35990        0.96100
H         -1.99890       -0.08480       -0.77220
H         -0.50580       -3.55510       -1.22570
H          1.05740       -2.20590       -2.30590
H          1.96140       -0.00130       -2.69430
