11
gdb 2821	4.67602	1.97267	1.5113	2.3004	54.08	-0.2644	-0.0483	0.2161	757.3833	0.075445	-343.19541	-343.188627	-343.187683	-343.226442	23.635
O         -0.26400        0.31870        0.75910
C          0.28230        0.76350       -0.21670
C          1.38280        1.77570       -0.14200
O          2.30050        1.77360       -1.23490
C          1.43400        2.90010       -1.12090
C          0.44000        3.09900       -2.14130
C         -0.38010        3.31210       -2.99320
H          0.02000        0.45590       -1.24980
H          1.80930        1.93370        0.84750
H          1.92720        3.80760       -0.77310
H         -1.10700        3.49130       -3.74720
