14
gdb 3589	4.87518	3.29968	2.58459	3.1947	55.72	-0.2394	0.0689	0.3083	562.1889	0.115715	-324.528642	-324.523501	-324.522557	-324.557242	20.805
C         -0.00770        1.51500        0.10480
C          1.43430        1.99530       -0.07530
N          2.38830        1.49440        0.92970
C          2.30420        0.82480       -0.38540
C          1.42570       -0.41150       -0.38990
O          0.81530       -0.71540        0.86420
C          0.04000        0.00180       -0.09790
H         -0.41550        1.78100        1.08480
H         -0.64780        1.96420       -0.66310
H          1.60970        2.97200       -0.51610
H          3.20730        2.09890        0.93570
H          3.14010        0.88030       -1.07380
H          1.68580       -1.26300       -1.01280
H         -0.83640       -0.52480       -0.47090
