15
gdb 3037	10.6876	1.14092	1.10543	4.0252	62.41	-0.2529	0.0357	0.2886	1031.5211	0.125349	-304.681399	-304.674166	-304.673222	-304.713225	25.306
N         -0.08290       -1.13100        0.04040
C         -0.01920        0.02130        0.09740
C          0.08720        1.47570        0.16270
C          1.48740        1.97750       -0.23520
N          1.50860        3.43010       -0.17420
C          1.92310        4.01960        1.09880
C          2.82670        4.04880       -0.08350
H         -0.66000        1.92620       -0.49840
H         -0.14940        1.80290        1.18140
H          2.24540        1.50940        0.41630
H          1.70570        1.66950       -1.26290
H          1.38350        4.91080        1.40460
H          2.19170        3.34520        1.91080
H          3.69640        3.39440       -0.05900
H          2.95810        4.96120       -0.65740
