20
gdb 17827	4.26947	1.25908	1.09553	1.3927	75.8	-0.2502	0.081	0.3312	1141.4884	0.177436	-348.973643	-348.96547	-348.964526	-349.006584	31.096
O         -0.03830        1.51130        0.22920
C          0.02060        0.12120        0.07390
C         -0.50200       -0.77200        1.17030
C         -1.28490       -0.59750       -0.12130
C         -2.59040        0.14790       -0.12860
C         -3.20440        0.58200       -1.49210
C         -4.60670        0.22890       -0.92820
C         -3.90800       -0.63150        0.15900
H          0.60860        1.76100        0.89690
H          0.87780       -0.23220       -0.49960
H         -0.00330       -1.71480        1.36820
H         -0.90070       -0.27470        2.04910
H         -1.25000       -1.43920       -0.81020
H         -2.51670        1.01750        0.53000
H         -3.02120        1.60560       -1.82680
H         -2.91020       -0.10370       -2.29420
H         -5.09970        1.10420       -0.49500
H         -5.31360       -0.27040       -1.59510
H         -3.82330       -1.67860       -0.15070
H         -4.30690       -0.60370        1.17640
