20
gdb 14264	2.91592	2.46574	1.74648	0.3265	78.85	-0.2291	0.0231	0.2522	841.911	0.180922	-311.867371	-311.860721	-311.859777	-311.897701	27.692
C          0.03580        1.57370       -0.21860
C          1.53590        1.47700        0.17880
C          1.18570        0.15570        0.92390
C         -0.08310        0.03380        0.02330
C          0.12490       -0.76230       -1.23790
C          1.23130       -0.78020       -1.98440
C          2.53810       -0.07370       -1.69960
C          2.48670        1.31420       -1.02180
H         -0.54000        2.14360        0.51690
H         -0.20110        1.93710       -1.22210
H          1.90000        2.29380        0.80900
H          1.90470       -0.66600        0.89740
H          0.91040        0.34600        1.96510
H         -0.99320       -0.29870        0.52840
H         -0.72660       -1.34940       -1.57520
H          1.22920       -1.40090       -2.87830
H          3.16160       -0.74240       -1.08810
H          3.09020        0.03410       -2.64050
H          2.22000        2.07080       -1.77090
H          3.50870        1.55330       -0.70330
