18
gdb 18702	3.23856	2.21467	1.51753	1.7026	72.72	-0.2426	0.0251	0.2677	873.7587	0.155122	-347.80647	-347.799336	-347.798392	-347.837635	27.907
C          0.38890        1.55300        0.01560
C         -0.03910        0.07310        0.00050
C          0.36470       -0.60360       -1.28500
C          0.97020       -1.78500       -1.37520
C          1.33850       -2.64410       -0.19740
C          1.15930       -1.95110        1.13310
O          1.91530       -0.75250        1.33370
C          0.49080       -0.64520        1.22620
H          1.47960        1.62820       -0.00170
H         -0.00910        2.08370       -0.85500
H          0.02460        2.05940        0.91560
H         -1.13840        0.04440        0.07070
H          0.13060       -0.05500       -2.19510
H          1.21820       -2.18460       -2.35550
H          0.72950       -3.56030       -0.19870
H          2.37920       -2.98580       -0.28820
H          1.13770       -2.60740        2.00430
H          0.00010       -0.37930        2.16430
