14
gdb 5548	3.37305	1.97345	1.3133	2.8232	60.78	-0.1917	0.0139	0.2055	897.3822	0.107735	-415.86885	-415.861167	-415.860223	-415.901185	27.161
C         -0.31960        1.25170       -0.09660
O          0.58020        0.15870        0.13270
C          0.86930       -0.57780       -0.94710
C          0.72000       -1.89720       -1.23700
N          0.19450       -2.93210       -0.46640
N          1.28730       -2.14560       -2.47940
C          1.73970       -0.99720       -2.86790
O          1.54520        0.01450       -1.99930
H          0.12900        1.99020       -0.76860
H         -1.26280        0.89410       -0.52630
H         -0.50360        1.70730        0.87750
H         -0.45390       -2.60870        0.23890
H         -0.22580       -3.64970       -1.04270
H          2.23770       -0.75780       -3.79400
