16
gdb 4348	3.76332	1.81408	1.23479	3.1694	75.95	-0.2092	-0.0124	0.1968	960.766	0.132653	-342.850952	-342.843504	-342.84256	-342.882762	28.114
C         -0.01220        1.51740        0.00880
C         -0.00140        0.01010        0.00690
C         -0.08790       -0.71340       -1.18400
N         -0.08580       -2.04760       -1.24090
C          0.00650       -2.72160       -0.10110
C          0.10280       -2.11100        1.16050
N          0.25980       -2.87400        2.31610
C          0.09410       -0.71520        1.19310
H          0.90620        1.92310        0.44790
H         -0.09970        1.91210       -1.00690
H         -0.85030        1.91130        0.59470
H         -0.16490       -0.18940       -2.13410
H          0.00720       -3.80900       -0.17270
H         -0.07900       -3.82270        2.24540
H         -0.05670       -2.43160        3.16670
H          0.16580       -0.19670        2.14660
