18
gdb 7188	4.53855	0.90188	0.79291	3.7885	67.14	-0.2705	0.008	0.2786	1422.6642	0.150631	-422.090822	-422.081125	-422.080181	-422.126687	32.392
C          0.94780        1.39510       -0.12960
O          1.03030       -0.00950       -0.04150
C         -0.07540       -0.66320       -0.61570
C          0.11920       -2.16710       -0.42520
C          0.15210       -2.58790        1.03600
O         -0.99050       -2.81270       -1.07730
C         -0.74060       -3.64100       -2.10750
O         -1.60340       -4.21050       -2.70490
H          0.90420        1.73460       -1.17590
H          0.06180        1.78350        0.39570
H          1.84600        1.80400        0.33860
H         -1.01930       -0.34960       -0.13940
H         -0.15770       -0.43690       -1.69150
H          1.05330       -2.45990       -0.92300
H          0.93950       -2.03760        1.55570
H         -0.80650       -2.36670        1.51510
H          0.34480       -3.66010        1.12790
H          0.34080       -3.73270       -2.33130
