10
gdb 3633	9.76796	2.00898	1.66628	2.9145	58.81	-0.2528	-0.0485	0.2043	675.6484	0.067023	-322.135917	-322.130368	-322.129423	-322.165183	20.275
C          0.08440       -1.18020       -0.00520
C          0.00100        0.02000        0.00270
C         -0.10500        1.42350        0.01210
C         -1.17780        2.27040        0.03130
C         -0.58320        3.55530        0.03060
N          0.72720        3.49420        0.01270
O          1.04080        2.14720        0.00090
H          0.16030       -2.23990       -0.01220
H         -2.22110        2.00620        0.04380
H         -1.06370        4.52330        0.04250
