16
gdb 9657	3.50895	1.40166	1.30699	2.7097	67.79	-0.2464	0.0249	0.2712	997.2798	0.12808	-383.679838	-383.671231	-383.670287	-383.712704	32.072
O          0.18090        0.62960        0.80180
C         -0.22060        0.22600       -0.49400
C         -1.55570       -0.49610       -0.48320
C         -1.77300       -1.70710       -1.35860
C         -1.60230       -1.87200        0.14340
O         -0.35250       -2.31400        0.62260
C         -2.73240       -2.26600        0.94170
C         -3.66320       -2.63200        1.61000
H          0.31020       -0.18300        1.30500
H         -0.30370        1.14010       -1.09160
H          0.53860       -0.41050       -0.96840
H         -2.41790        0.13010       -0.27940
H         -2.75310       -1.88620       -1.78440
H         -0.93400       -2.03590       -1.96340
H         -0.36920       -3.27630        0.66730
H         -4.48560       -2.93810        2.20820
