20
gdb 6279	3.45608	1.06432	1.01081	4.5632	76.44	-0.2404	0.0321	0.2724	1278.3944	0.175498	-345.197181	-345.187326	-345.186382	-345.232469	35.256
C         -0.22960        1.44630       -0.03970
C          0.03480       -0.06330       -0.06510
C          0.92950       -0.43940       -1.24790
N          0.71060       -0.48770        1.17010
C         -0.11690       -0.57690        2.37200
C         -1.10780       -1.76080        2.42230
C          0.76840       -0.62400        3.55080
N          1.45160       -0.69230        4.48000
H          0.71270        1.99330        0.06080
H         -0.72360        1.76060       -0.96450
H         -0.88040        1.74020        0.78970
H         -0.93350       -0.57820       -0.19910
H          1.90960        0.03880       -1.15100
H          1.08140       -1.52320       -1.30300
H          0.47880       -0.11740       -2.19060
H          1.18060       -1.37520        1.02390
H         -0.68580        0.35660        2.45020
H         -1.69610       -1.74050        3.34410
H         -1.79520       -1.71280        1.57410
H         -0.56800       -2.71170        2.38290
