13
gdb 21069	5.49261	1.44737	1.15388	3.321	64.	-0.2572	-0.0584	0.1988	968.2159	0.096435	-394.794413	-394.787183	-394.786239	-394.82753	24.288
C         -0.02580        1.43940       -0.00000
N         -0.00040       -0.01230        0.00330
N          0.05190       -0.71140       -1.13270
C          0.07640       -1.97340       -0.71170
C          0.03520       -1.98640        0.69500
C          0.03950       -3.14650        1.59570
O          0.00070       -3.09990        2.80070
N         -0.01260       -0.70990        1.11800
H          0.91290        1.82570       -0.40380
H         -0.85450        1.78670       -0.61980
H         -0.15590        1.76570        1.03000
H          0.11800       -2.79350       -1.41140
H          0.08250       -4.11730        1.05280
