16
gdb 11758	5.24926	1.3079	1.23948	1.3048	60.41	-0.2552	0.0643	0.3196	989.4902	0.129592	-420.827877	-420.820145	-420.819201	-420.860177	28.844
O          0.01960        1.39290       -0.30600
C          0.04660        0.01280        0.02020
C         -1.32350       -0.52340        0.28590
C         -2.28340       -0.24860        1.44770
C         -2.94230       -1.65630        1.16110
O         -4.29220       -1.70460        0.80050
C         -1.92420       -1.84370        0.01990
O         -2.16490       -0.74350       -0.87480
H         -0.52100        1.48450       -1.09850
H          0.51840       -0.58640       -0.77290
H          0.66190       -0.07410        0.92180
H         -1.79320       -0.20310        2.42330
H         -2.93650        0.61730        1.32190
H         -2.80000       -2.35590        1.98800
H         -4.36970       -1.18350       -0.00910
H         -1.51220       -2.74890       -0.41320
