10
gdb 684	8.31088	3.61027	2.9094	2.7712	43.08	-0.2489	-0.031	0.2179	444.2643	0.072489	-305.134491	-305.129673	-305.128729	-305.162619	17.466
O          0.01580        0.01930       -0.04740
C          0.00760        1.20850        0.04270
C         -1.12790        2.28220        0.11240
C         -0.01240        3.32100       -0.06860
O          0.85410        3.16660        1.04630
C          1.06890        2.30090       -0.08950
H         -1.80570        2.16820       -0.73890
H         -1.69660        2.36170        1.04050
H         -0.03590        4.27750       -0.57500
H          2.05420        2.29350       -0.53970
