12
gdb 21383	5.70091	2.17039	1.57194	0.0005	60.98	-0.2261	-0.0129	0.2132	722.5761	0.089037	-373.705404	-373.699893	-373.698948	-373.734759	21.439
N          0.02880        1.36900        0.00960
N          1.29700        1.84600       -0.00050
C          2.10770        0.79100       -0.01390
C          1.33980       -0.39720       -0.01250
C          0.00410        0.00580        0.00280
C         -0.76380       -1.18240        0.00430
N          0.04690       -2.23740       -0.00940
N          1.31510       -1.76040       -0.01960
H         -0.73160        2.02440        0.02060
H          3.17630        0.93660       -0.02380
H         -1.83240       -1.32800        0.01420
H          2.07550       -2.41580       -0.03040
