14
gdb 11741	4.68771	1.48333	1.28832	2.9506	58.13	-0.2826	-0.0037	0.2789	921.346	0.1066	-419.666677	-419.659506	-419.658562	-419.69845	26.355
O          0.06860        1.41690        0.22580
C          0.00810        0.04300       -0.10810
C         -1.37160       -0.51000        0.04420
C         -2.09350       -1.00380        1.23850
C         -1.95300       -1.90500       -0.00440
C         -2.84240       -1.33840       -1.07680
O         -3.64140       -1.72180       -1.86500
O         -2.36550       -0.03670       -0.92360
H         -0.50070        1.88930       -0.39200
H          0.35950       -0.14300       -1.13370
H          0.68280       -0.47730        0.57890
H         -1.47990       -1.32010        2.07690
H         -3.05940       -0.58500        1.49990
H         -1.49820       -2.88440        0.01820
