14
gdb 5718	4.92758	2.04078	1.47536	2.0987	62.88	-0.2061	0.02	0.2261	797.6458	0.110086	-382.554776	-382.548852	-382.547908	-382.58489	22.949
C          0.04180        1.37120       -0.18580
C          1.46280        1.90260        0.18990
C          2.11940        0.62920        0.63420
C          3.27510        0.03060        1.00950
O          3.03260       -1.26660        1.35140
C          1.68400       -1.50990        1.19350
C          1.10850       -0.36340        0.75830
O         -0.13530        0.06990        0.43480
H         -0.76900        2.01390        0.16280
H         -0.04980        1.24350       -1.27090
H          1.94020        2.38720       -0.66600
H          1.41090        2.63960        0.99930
H          4.30190        0.34650        1.08980
H          1.34710       -2.50300        1.42820
