20
gdb 18937	3.00014	3.00012	2.36572	0.	76.22	-0.2775	0.0974	0.3749	725.6712	0.18357	-311.870807	-311.865537	-311.864593	-311.899707	24.332
C         -0.03160        1.58320        0.00720
C          1.50980        1.72150        0.03990
C          1.72120        1.08400        1.43460
C          1.24920       -0.31300        0.96370
C          2.42210       -0.58400       -0.00950
C          2.00060        0.55280       -0.97190
C          0.66900       -0.08520       -1.43660
C          0.02100        0.03670       -0.03610
H         -0.50000        2.01500        0.89510
H         -0.52500        2.00130       -0.87370
H          1.93440        2.70980       -0.13600
H          2.75280        1.06740        1.79460
H          1.10240        1.55860        2.20010
H          1.04000       -1.06200        1.72740
H          3.39370       -0.45760        0.47450
H          2.41220       -1.56030       -0.50040
H          2.71210        0.85810       -1.73900
H          0.11560        0.47590       -2.19360
H          0.80950       -1.10430       -1.80520
H         -0.90590       -0.50780        0.14320
