18
gdb 14834	2.98278	1.67465	1.13748	1.7559	71.89	-0.2246	0.026	0.2506	1073.5854	0.152728	-381.09313	-381.084035	-381.083091	-381.127835	31.261
C         -0.22380        1.39720       -0.33850
O          0.18400        0.08880        0.03220
C          0.75110       -0.62500       -1.02560
C          1.08370       -2.09510       -0.64850
N          0.28290       -2.51760       -1.81320
C         -0.21490       -1.23530       -2.05730
N         -1.10840       -0.73660       -2.79610
C         -1.89930       -1.65870       -3.60130
H          0.63440        1.99760       -0.67860
H         -0.97430        1.36950       -1.13630
H         -0.64840        1.85970        0.55530
H          1.58560       -0.07280       -1.48320
H          2.13360       -2.39690       -0.69190
H          0.65260       -2.35740        0.32250
H         -0.23460       -3.38130       -1.88430
H         -2.68500       -2.14040       -3.00140
H         -2.39630       -1.10630       -4.40330
H         -1.29480       -2.45480       -4.06220
