13
gdb 10005	2.74223	1.29587	0.92365	4.0602	71.86	-0.2743	0.011	0.2852	1215.2072	0.092399	-324.266318	-324.257288	-324.256344	-324.301693	30.148
C          0.00960        1.50180        0.01370
C         -0.00830        0.04730        0.01250
C         -0.02510       -1.15410        0.00440
C         -0.04040       -2.62240        0.00950
C         -1.39790       -3.17540       -0.10330
C         -2.50410       -3.63210       -0.17540
C          0.83370       -3.16410       -1.05630
N          1.52930       -3.59130       -1.87220
H          0.62090        1.88530       -0.80990
H         -1.00130        1.90650       -0.10200
H          0.42340        1.89180        0.94940
H          0.38910       -2.97300        0.96100
H         -3.48530       -4.03320       -0.24720
