10
gdb 2493	2.85134	2.76229	1.47936	3.5654	57.61	-0.2919	0.0039	0.2959	762.5513	0.064106	-284.964138	-284.956993	-284.956049	-284.995268	24.99
C         -0.01890       -1.22640        0.02070
C          0.00300       -0.02840       -0.01380
C          0.02190        1.44050       -0.03440
C          1.38640        1.98480       -0.01690
C          2.49670        2.43530        0.01580
C         -0.73850        1.96140       -1.19240
N         -1.34510        2.37700       -2.08180
H         -0.03550       -2.28860        0.04370
H         -0.50220        1.80200        0.86400
H          3.48230        2.83170        0.03900
