18
gdb 19530	3.53413	1.75486	1.66274	2.2316	67.72	-0.2317	0.0753	0.307	884.937	0.154491	-384.911145	-384.903523	-384.902578	-384.943249	27.925
C          0.25270        1.22750        0.19150
O         -0.37960        0.09680       -0.37340
C          0.41840       -0.56580       -1.29660
C          1.41510       -1.62930       -0.88910
C          1.28650       -2.23580        0.49790
O         -0.07510       -2.59970        0.67210
C         -0.69330       -2.78200       -0.59500
C          0.12420       -1.99870       -1.60840
H          1.18080        0.95860        0.71500
H          0.49470        1.97940       -0.57580
H         -0.44830        1.66400        0.90630
H          0.72200        0.05620       -2.14240
H          2.38080       -1.67150       -1.38060
H          1.95010       -3.11340        0.57200
H          1.54430       -1.55070        1.31360
H         -0.70730       -3.84550       -0.88340
H         -1.72770       -2.43490       -0.50400
H          0.10670       -2.32570       -2.64160
