13
gdb 1460	8.1931	1.44003	1.23426	6.3213	54.16	-0.2411	-0.0115	0.2296	904.6652	0.100495	-377.78067	-377.772672	-377.771728	-377.814079	26.269
O          0.21100        1.38540        0.00890
C          0.01650       -0.00090        0.00170
C         -1.49540       -0.27940        0.01450
O         -2.33160        0.57980        0.02640
N         -1.75350       -1.65340        0.01020
C         -2.97810       -2.31880        0.01820
N         -4.10710       -1.74620        0.03170
H          1.15760        1.55400       -0.00390
H          0.44640       -0.48460       -0.89310
H          0.46380       -0.49620        0.88150
H         -0.94570       -2.25680        8.75820
H         -2.81580       -3.40500        0.01110
H         -4.84530       -2.44840        0.03500
