14
gdb 12759	3.44813	1.79962	1.51403	2.3	63.35	-0.2357	0.0153	0.2511	854.1154	0.104888	-382.446192	-382.438827	-382.437883	-382.47756	28.116
O         -0.01770        1.43420        0.05850
C         -0.02000        0.06080        0.01160
C         -0.34140       -0.76660       -1.21150
C         -1.15800       -0.91800        0.04750
O         -0.49420       -1.78110        0.97520
C          0.61880       -0.83640        1.09190
C          1.92760       -1.41610        0.85870
C          3.01990       -1.87460        0.65350
H          0.66260        1.75940       -0.54210
H         -0.83160       -0.19520       -1.99450
H          0.30850       -1.57150       -1.54280
H         -2.23240       -0.81010        0.12520
H          0.57310       -0.34530        2.07120
H          3.98310       -2.28720        0.47930
