15
gdb 15134	7.92975	0.8763	0.83351	3.9376	66.49	-0.2568	-0.0296	0.2272	1327.6367	0.117263	-399.79907	-399.790987	-399.790043	-399.832661	27.831
O         -0.10640        0.38400       -0.27920
C          0.41350        1.45040       -0.37020
O          0.99400        2.04360        0.72800
C          1.44600        3.33220        0.63170
N          1.09090        4.12460       -0.27570
C          1.61710        5.45870       -0.30040
C          2.93550        5.88290        0.30610
C          2.77720        5.79220       -1.19720
H          0.51430        2.05950       -1.27720
H          2.12020        3.54370        1.46410
H          0.81690        6.19300       -0.28220
H          2.98890        6.86280        0.76730
H          3.56460        5.13920        0.78140
H          3.26650        4.96140       -1.69410
H          2.73290        6.70440       -1.78120
