19
gdb 16490	2.75282	2.57283	1.72312	1.7324	74.25	-0.2358	0.087	0.3228	847.3648	0.166201	-327.881289	-327.873874	-327.87293	-327.912404	29.14
C          0.04660        1.68010       -0.04220
C          0.11270        0.16070        0.03960
C          1.10830       -0.66810       -0.80370
C          2.52700       -0.17870       -0.45900
C          2.21470       -0.74680        0.91190
N          1.19570       -1.71380        0.35740
C          0.75910       -0.55840        1.21940
C          0.18500       -0.76050        2.58840
H          1.02350        2.14390        0.12180
H         -0.32150        2.00570       -1.02150
H         -0.63850        2.07830        0.71430
H         -0.88750       -0.26740       -0.10150
H          0.85310       -1.00470       -1.80720
H          3.28090       -0.78810       -0.96450
H          2.77420        0.88140       -0.57430
H          2.91700       -1.05820        1.67820
H          0.21470        0.16830        3.16960
H         -0.85690       -1.09350        2.53130
H          0.75050       -1.52000        3.13720
