17
gdb 7256	4.38453	1.16778	1.04268	5.5235	67.13	-0.2476	-0.0296	0.218	1161.8839	0.140158	-401.057491	-401.048233	-401.047288	-401.092429	31.764
C          0.15830        1.48470       -0.25170
C         -0.00200       -0.00640        0.05360
C          0.67070       -0.39080        1.38780
C         -1.48780       -0.37660        0.12570
O         -2.35200        0.39110        0.46050
N         -1.73910       -1.72270       -0.20210
C         -2.95160       -2.40700       -0.16150
O         -4.01540       -1.96450        0.16940
H          1.21680        1.76070       -0.25470
H         -0.26690        1.73940       -1.22650
H         -0.36060        2.08210        0.50150
H          0.46580       -0.59220       -0.74950
H          0.21910        0.16580        2.21480
H          0.56950       -1.45870        1.60570
H          1.73760       -0.15130        1.35650
H         -0.94500       -2.27080       -0.49900
H         -2.80250       -3.45780       -0.48730
