18
gdb 18733	3.03465	2.19891	1.47296	0.2209	66.77	-0.2422	0.0685	0.3107	872.5306	0.155781	-384.921952	-384.914775	-384.913831	-384.953105	28.199
O         -0.04740        1.42920        0.03960
C         -0.00840        0.00510        0.02740
C          0.78460       -0.53670        1.22760
O          0.67340       -1.94130        1.31570
C         -0.63090       -2.34150        1.71120
C         -1.75070       -1.72340        0.87510
C         -2.30520       -0.36670        1.23430
C         -1.42680       -0.51370        0.02100
H          0.84590        1.75200       -0.11990
H          0.48590       -0.35730       -0.88720
H          1.84980       -0.31010        1.10790
H          0.44030       -0.04380        2.15220
H         -0.64480       -3.42990        1.60960
H         -0.77600       -2.10410        2.77850
H         -2.44910       -2.43830        0.45260
H         -3.36090       -0.17860        1.07450
H         -1.89470        0.13180        2.10660
H         -1.92080       -0.44640       -0.94310
