15
gdb 8658	2.27432	1.82786	1.46656	3.3235	61.9	-0.2802	-0.0609	0.2193	942.0222	0.115152	-399.813786	-399.804576	-399.803632	-399.847923	31.565
C         -0.11290        1.43300        0.16680
C         -0.10610       -0.07260       -0.10130
C          0.77250       -0.48930       -1.29520
O          2.15130       -0.22080       -1.10930
C          0.71540       -2.02600       -1.50860
O         -0.22980       -2.70230       -1.22440
C          0.29520        0.13650       -2.54910
N         -0.05850        0.63950       -3.52830
H          0.88920        1.80530        0.40660
H         -0.49200        1.99360       -0.69340
H         -0.75260        1.66080        1.02330
H          0.27640       -0.61540        0.76920
H         -1.11750       -0.44370       -0.28960
H          2.28790        0.73280       -1.11110
H          1.65270       -2.42730       -1.94390
