11
gdb 21852	3.7828	1.9424	1.2834	2.3667	63.46	-0.229	-0.0345	0.1945	849.356	0.072822	-393.546675	-393.540021	-393.539077	-393.577437	24.777
O          0.12660        1.36530        0.04210
C          0.08110        0.02900       -0.02550
C          0.01800       -0.75480       -1.16970
N         -0.00570       -2.02060       -0.64100
N          0.03820       -2.01650        0.68780
N          0.09150       -0.76180        1.06880
C         -0.01750       -0.46060       -2.53980
C         -0.04860       -0.22070       -3.71970
H          0.16500        1.59840        0.97910
H         -0.05050       -2.89520       -1.14070
H         -0.07540        0.00490       -4.75710
