17
gdb 3539	5.67802	2.90687	2.55661	0.1455	67.48	-0.2854	0.1043	0.3897	609.5046	0.152	-272.550818	-272.545676	-272.544732	-272.579337	21.687
C         -0.07040        1.56710        0.01000
C          1.44720        1.27160       -0.00530
C          1.21980        0.11930        1.02720
C          2.21820       -1.00610        0.75370
C          2.20410       -0.99770       -0.80280
C          1.20100        0.13050       -1.04600
C          0.04380        0.02510        0.00060
H         -0.47440        2.02630        0.91740
H         -0.49070        2.03600       -0.88490
H          2.27070        1.98970       -0.00890
H          0.99270        0.37990        2.06340
H          3.20830       -0.79050        1.16870
H          1.88940       -1.96200        1.17440
H          3.18650       -0.77770       -1.23330
H          1.86740       -1.94910       -1.22760
H          0.95530        0.40220       -2.07500
H         -0.76650       -0.70790        0.00400
