18
gdb 12315	3.04054	2.04534	1.28577	3.2407	75.39	-0.2349	-0.0424	0.1925	962.3192	0.154793	-347.857093	-347.849396	-347.848451	-347.889004	29.117
C          0.01260        1.51040        0.05220
C          0.00460        0.00830       -0.01690
C         -0.04400       -0.68140       -1.16870
C         -0.01840       -2.18060       -1.27230
C          0.54440       -2.83380       -0.00520
C         -0.10450       -2.22860        1.24320
C          0.03340       -0.71160        1.28720
O          0.12080       -0.10780        2.33900
H          0.91110        1.86980        0.56400
H         -0.02580        1.95350       -0.94620
H         -0.83650        1.87900        0.63700
H         -0.10900       -0.13060       -2.10620
H         -1.04120       -2.54320       -1.46300
H          0.56340       -2.47780       -2.15290
H          0.39440       -3.91790       -0.03060
H          1.62740       -2.66300        0.03260
H         -1.18150       -2.45380        1.24630
H          0.30690       -2.63410        2.17090
