13
gdb 13578	4.12999	1.31446	1.26354	3.4358	61.3	-0.2982	-0.1008	0.1974	979.7401	0.093264	-398.59329	-398.585384	-398.58444	-398.626148	27.198
C          0.26640        1.49590       -0.46270
C         -0.01640        0.08880       -0.01520
O          1.07270       -0.81930        0.05000
C          0.44780       -0.49600        1.27980
C          1.23910        0.32550        2.24620
O          2.23380        0.95450        1.98840
C          0.66900        0.33650        3.61210
N          0.20980        0.34210        4.67340
H          1.17790        1.88260       -0.00520
H          0.39100        1.51110       -1.55020
H         -0.57510        2.14980       -0.21240
H         -0.93540       -0.35570       -0.40210
H         -0.15300       -1.28340        1.73500
