13
gdb 18428	3.50875	1.88363	1.65342	2.8248	59.68	-0.2574	-0.0547	0.2027	795.1514	0.094304	-398.564484	-398.557664	-398.55672	-398.59603	24.625
O         -0.26070        0.11850        0.35930
C          0.02440        1.18060       -0.13250
C          1.29380        1.95940        0.06440
C          1.52780        2.90920        1.20970
N          2.39700        1.67820        0.96720
C          1.82930        1.03050        2.21720
C          1.02880        2.31190        2.50410
O          0.44700        2.75620        3.44770
H         -0.66470        1.68740       -0.84490
H          1.64040        2.37360       -0.88360
H          1.85840        3.92810        1.03920
H          1.29400        0.09870        2.05130
H          2.62830        0.90060        2.95180
