14
gdb 2838	3.66164	2.4522	1.66666	4.2202	58.79	-0.2631	0.0281	0.2912	749.3643	0.112858	-324.563745	-324.556558	-324.555614	-324.59507	25.27
C         -0.40740        1.01400       -0.04240
O          0.59330        0.01880        0.12540
C          0.97830       -0.57750       -1.05430
C          1.56390       -1.93750       -0.95030
C          0.18330       -1.77810       -1.59050
C         -0.97690       -2.22840       -0.88070
N         -1.92580       -2.58510       -0.32220
H         -0.05970        1.81770       -0.70730
H         -1.33290        0.58690       -0.44710
H         -0.60500        1.42880        0.94740
H          1.36020        0.10180       -1.81830
H          2.38350       -2.21470       -1.60210
H          1.58440       -2.37400        0.04100
H          0.11970       -1.88680       -2.66810
