18
gdb 16183	4.2135	1.53462	1.33838	1.0651	66.71	-0.2315	0.0754	0.3069	953.7608	0.154925	-384.921189	-384.913678	-384.912734	-384.952939	28.795
O          0.06840        1.42880        0.35590
C          0.07690        0.04740        0.01810
C         -1.30680       -0.51680       -0.16220
C         -2.07460       -1.04910        1.04790
C         -1.63090       -1.98050       -0.05280
O         -2.55440       -2.36080       -1.03590
C         -3.16880       -1.17380       -1.54240
C         -2.16330       -0.02260       -1.32270
H         -0.47050        1.52430        1.14860
H          0.63910       -0.01740       -0.92080
H          0.62520       -0.54300        0.77020
H         -1.53280       -1.10970        1.98730
H         -3.13000       -0.82330        1.15710
H         -0.89420       -2.75310        0.13560
H         -3.41310       -1.34660       -2.59390
H         -4.10880       -0.97950       -1.00750
H         -2.66650        0.92840       -1.12870
H         -1.52180        0.11460       -2.20030
