13
gdb 5362	5.3864	1.6205	1.24573	3.5652	68.89	-0.2556	-0.0727	0.1829	895.9881	0.097906	-361.534362	-361.528189	-361.527244	-361.56483	22.894
O         -0.86720        1.12780        0.23540
C          0.25900        0.83620       -0.08930
C          1.41040        1.78210       -0.05480
N          2.58580        1.27590       -0.45300
C          3.63940        2.09090       -0.43630
C          3.57250        3.42400       -0.02940
C          2.34580        3.93850        0.38220
C          1.23840        3.10070        0.37010
H          0.53650       -0.17700       -0.44660
H          4.58460        1.66370       -0.76260
H          4.46510        4.03970       -0.03730
H          2.25750        4.97040        0.70490
H          0.25250        3.43010        0.67620
