19
gdb 1355	4.04236	2.23226	2.08954	1.2861	66.51	-0.2594	0.068	0.3274	754.8611	0.172177	-310.94266	-310.935106	-310.934161	-310.974251	29.035
C         -0.27270        1.52640        0.01890
C          0.08660        0.04320       -0.04660
O         -1.10530       -0.73910       -0.23010
C          1.11110       -0.31370       -1.14370
C          1.60290       -1.70600       -0.72780
C          1.76260       -1.58730        0.80440
C          0.73560       -0.50690        1.24660
H          0.61340        2.14440        0.19570
H         -0.72810        1.86030       -0.92170
H         -0.99100        1.70970        0.82370
H         -1.49490       -0.48260       -1.07330
H          0.67020       -0.27800       -2.14650
H          1.93820        0.40800       -1.12430
H          0.83070       -2.44270       -0.96790
H          2.52490       -2.00940       -1.23110
H          1.60670       -2.54340        1.31050
H          2.77920       -1.26280        1.05120
H          1.22530        0.30060        1.79820
H         -0.05120       -0.90980        1.88840
