18
gdb 8693	2.69818	1.63675	1.30594	4.2495	67.85	-0.2439	0.0313	0.2751	1012.8363	0.155013	-377.292502	-377.283077	-377.282133	-377.325998	34.386
N          0.18030        1.45820        0.07150
C          0.03080        0.01640       -0.01240
C         -1.42910       -0.51860       -0.09440
N         -2.07200        0.05900       -1.28060
C         -1.44770       -2.07090       -0.07830
N         -2.81760       -2.55920       -0.22420
C         -2.16560       -0.04790        1.09810
N         -2.71950        0.28060        2.05820
H         -0.40860        1.89220       -0.63450
H         -0.16620        1.78810        0.96810
H          0.54430       -0.34310       -0.91510
H          0.53260       -0.44600        0.84370
H         -1.51400       -0.19730       -2.09290
H         -2.96990       -0.40540       -1.40290
H         -0.86660       -2.40960       -0.94410
H         -0.92940       -2.43050        0.82520
H         -2.82080       -3.54590       -0.45750
H         -3.31770       -2.46350        0.65490
