18
gdb 8934	4.29598	1.09697	1.0282	0.9051	64.86	-0.2644	-0.04	0.2244	1167.1064	0.150821	-422.080414	-422.070916	-422.069972	-422.114725	33.546
C         -0.05040        1.55230        0.14540
C         -0.02760        0.02570        0.00410
C         -1.44180       -0.57830        0.06390
O         -2.10810       -0.30450        1.28600
C          0.65640       -0.42070       -1.30930
O          0.02170        0.11860       -2.43880
C          2.12530       -0.05550       -1.30920
O          2.61730        0.61360       -2.18590
H          0.95900        1.97480        0.18000
H         -0.57320        2.00660       -0.70130
H         -0.55430        1.84180        1.07160
H          0.54310       -0.40630        0.83830
H         -2.02310       -0.23230       -0.80170
H         -1.37100       -1.67010       -0.00410
H         -2.47950        0.58030        1.23330
H          0.62070       -1.52690       -1.34540
H          0.71720        0.57890       -2.93510
H          2.72600       -0.43910       -0.45900
