17
gdb 2301	7.87621	1.20969	1.12832	2.3887	60.22	-0.2435	0.0742	0.3178	1032.2202	0.148082	-346.82246	-346.814622	-346.813678	-346.855436	26.923
O         -0.10150        1.45480        0.05020
C          0.00430        0.04060        0.07810
C         -1.39440       -0.53740       -0.10140
C         -1.41550       -2.05900       -0.07840
C         -1.24010       -2.77720        1.28160
O         -2.49710       -3.46620        1.13440
C         -2.79480       -2.75670       -0.08520
H          0.77660        1.82610        0.17520
H          0.66310       -0.32760       -0.72600
H          0.43290       -0.30830        1.03250
H         -2.04190       -0.14120        0.69090
H         -1.80170       -0.17110       -1.05200
H         -0.74650       -2.46020       -0.84610
H         -0.39800       -3.47430        1.36870
H         -1.23830       -2.10960        2.15540
H         -3.65030       -2.07710        0.03340
H         -2.99750       -3.43920       -0.91910
