15
gdb 5750	4.93564	1.77827	1.39367	1.4728	68.91	-0.2081	0.0342	0.2422	861.0618	0.121047	-362.657305	-362.650705	-362.64976	-362.688177	25.322
O          0.35330        1.32210        0.35790
C          0.10340       -0.02180        0.04470
C         -1.40890       -0.51830        0.04720
N         -1.19850       -0.86080       -1.36880
C         -1.55730       -1.50030       -2.51630
C         -0.43110       -1.45930       -3.33080
C          0.63790       -0.81510       -2.63570
C          0.10550       -0.46110       -1.41310
H          0.00340        1.86030       -0.36110
H          0.73780       -0.60840        0.71480
H         -1.62750       -1.37800        0.68750
H         -2.14540        0.27310        0.21440
H         -2.54450       -1.89590       -2.69110
H         -0.38550       -1.84430       -4.33920
H          1.63770       -0.64870       -3.00390
