14
gdb 12176	3.67377	1.4849	1.15156	2.1447	59.	-0.2748	-0.053	0.2218	991.7656	0.105195	-419.710748	-419.70291	-419.701966	-419.743648	27.001
C         -0.51780        1.12600        0.11190
C          0.13730       -0.24770        0.15260
C          1.02410       -0.69660       -1.04360
O          2.17050       -0.83540       -0.14750
C          1.44640       -0.38850        0.93750
O          1.83330       -0.20720        2.04340
C          0.64750       -2.01400       -1.67970
O          0.10110       -2.10060       -2.74690
H          0.19380        1.89630       -0.19930
H         -1.36010        1.13280       -0.58540
H         -0.89230        1.39040        1.10460
H         -0.58120       -1.01590        0.45830
H          1.19900        0.06980       -1.80160
H          0.89430       -2.90250       -1.05650
