17
gdb 8132	4.10049	1.7295	1.44761	2.1018	67.9	-0.2287	-0.0239	0.2048	896.2578	0.141945	-363.870935	-363.863621	-363.862677	-363.902373	28.259
C         -0.12350        1.53690        0.14860
C          0.00790        0.04470       -0.02280
C         -0.82310       -0.90040        0.76980
N          0.59510       -0.72090        1.12000
C          1.44940       -1.77670        0.57710
C          1.29640       -1.77940       -0.95320
O          1.70910       -2.61910       -1.70710
C          0.54010       -0.49950       -1.33580
H          0.82400        2.04090       -0.07360
H         -0.88590        1.94240       -0.52590
H         -0.40500        1.78270        1.17560
H         -1.52620       -0.52020        1.50550
H         -1.12490       -1.83950        0.30550
H          2.49830       -1.56430        0.82140
H          1.21030       -2.75960        0.99470
H         -0.22630       -0.71810       -2.08430
H          1.25260        0.19680       -1.79690
