15
gdb 14218	4.55111	1.89677	1.68981	4.3152	64.84	-0.2463	0.0042	0.2505	797.2551	0.118932	-362.628118	-362.621515	-362.620571	-362.658623	25.61
C         -0.02070        1.48680        0.11340
C         -0.04460       -0.00570        0.03190
C         -1.24990       -0.91380       -0.26330
C         -0.31660       -2.09780        0.12610
C          0.60090       -1.04120        0.85160
N          1.20650       -0.68170       -0.50900
C          0.74330       -1.99180       -0.96180
O          1.20990       -2.70180       -1.79460
H          0.95410        1.83970        0.45810
H         -0.21490        1.92930       -0.86900
H         -0.78950        1.84320        0.80710
H         -2.04000       -0.75300        0.47480
H         -1.67430       -0.91920       -1.27290
H         -0.69390       -3.04760        0.49400
H          1.20920       -1.06090        1.74390
