14
gdb 20393	4.94301	2.06802	1.48952	3.51	62.88	-0.2005	0.02	0.2205	790.967	0.111207	-378.722958	-378.716905	-378.715961	-378.753218	22.978
C          0.05120        1.37360       -0.17120
C          1.49620        1.87090        0.19480
C          2.08100        0.55620        0.60130
C          1.10200       -0.39090        0.71090
O         -0.15100        0.05150        0.39800
C          1.72450       -1.56160        1.17180
N          3.03620       -1.33440        1.33920
N          3.23020       -0.04090        0.99850
H         -0.73610        2.02510        0.21300
H         -0.05440        1.29170       -1.25900
H          1.97340        2.34900       -0.66610
H          1.48660        2.60060        1.01450
H          1.31540       -2.53570        1.38770
H          4.16390        0.32950        1.03340
