20
gdb 9383	4.76036	0.8602	0.76321	1.2662	78.72	-0.2516	0.0413	0.2929	1533.7088	0.17335	-348.966476	-348.956277	-348.955333	-349.002579	35.712
C         -0.07610        1.50580       -0.02790
C          0.08400       -0.01620       -0.00780
C          0.68240       -0.52020        1.29870
O          0.79380       -1.92920        1.22140
C          1.43170       -2.53570        2.33910
C          0.47100       -2.71070        3.52710
C          1.97040       -3.82610        1.90550
C          2.41200       -4.89610        1.58500
H          0.88850        2.01130        0.09270
H         -0.50960        1.84190       -0.97410
H         -0.73320        1.84990        0.77850
H         -0.88670       -0.50310       -0.15520
H          0.72610       -0.34450       -0.83270
H          1.67640       -0.06930        1.46430
H          0.04550       -0.21540        2.14510
H          2.27670       -1.90190        2.65830
H          0.98320       -3.19850        4.36090
H          0.10160       -1.74070        3.87080
H         -0.37920       -3.32810        3.22710
H          2.80610       -5.83680        1.28940
