17
gdb 15870	2.5605	2.05405	1.26701	1.5295	71.54	-0.2273	0.0302	0.2575	974.5035	0.140189	-363.794624	-363.786102	-363.785158	-363.827457	31.435
C          0.01370        1.46670       -0.02280
N         -0.05420        0.02880        0.10520
C         -1.31560       -0.60750        0.52870
C         -0.48470       -1.67190        1.29070
O         -0.26040       -2.87630        0.61670
C          0.68230       -0.61950        1.21630
C          2.02630       -1.07540        0.91450
C          3.13020       -1.47310        0.65160
H          1.04230        1.76780       -0.24520
H         -0.62110        1.79480       -0.85230
H         -0.31320        1.99800        0.89150
H         -1.91750        0.01570        1.21170
H         -1.95090       -0.96900       -0.28640
H         -0.82140       -1.93120        2.29460
H          0.17900       -2.67180       -0.21740
H          0.68830       -0.00300        2.13270
H          4.10790       -1.82040        0.42470
