17
gdb 17443	3.93149	1.81087	1.7241	3.7107	67.68	-0.2116	0.0674	0.279	839.1147	0.142309	-363.775064	-363.768117	-363.767173	-363.805695	28.203
C         -0.06690        1.48630        0.06330
C          0.09300        0.00120        0.01510
N         -0.84860       -0.92070        0.72090
C          0.62760       -0.97750        0.98080
C          1.31250       -1.79120       -0.14220
C          0.38290       -2.24090       -1.24370
O         -0.86300       -2.82690       -1.12400
C          0.73820       -0.77460       -1.17020
H          0.86400        1.98760       -0.22210
H         -0.85160        1.82200       -0.62520
H         -0.33350        1.82140        1.07190
H         -1.26920       -0.39570        1.48690
H          1.00640       -0.84280        1.98600
H          2.33260       -2.14400       -0.04810
H          0.93940       -2.73000       -2.04230
H         -1.29590       -2.33340       -0.40430
H          1.26360       -0.25390       -1.96290
