18
gdb 13183	3.21241	1.47408	1.09215	3.0392	68.09	-0.249	-0.0294	0.2196	1081.3313	0.152018	-384.925699	-384.916917	-384.915972	-384.960619	30.087
C         -0.16260        1.54040        0.04430
C         -0.02520        0.01240       -0.02700
C          0.67460       -0.40010       -1.30880
O          0.30990       -1.28110       -2.04360
C          0.78030       -0.53890        1.15930
C          0.08810       -0.51430        2.54370
O          0.14000       -1.94840        2.64820
C          0.77900       -2.07280        1.36080
H          0.81700        2.02740       -0.02120
H         -0.78490        1.92350       -0.76980
H         -0.62250        1.84430        0.98920
H         -1.01280       -0.46280       -0.03350
H          1.60820        0.17510       -1.52250
H          1.78140       -0.09710        1.16850
H          0.64510       -0.02080        3.34960
H         -0.94410       -0.13830        2.54430
H          0.16640       -2.63510        0.64540
H          1.76460       -2.54760        1.43600
