16
gdb 13553	3.79671	1.40647	1.12971	2.8073	66.31	-0.2475	0.0062	0.2537	1039.4634	0.129248	-379.887539	-379.878992	-379.878048	-379.920781	30.377
C         -0.80930        1.21890        0.38440
N         -0.17000       -0.08050        0.21890
C          1.10920       -0.14500       -0.47140
C          1.01400       -0.42210        0.99200
C          1.62360        0.53900        2.00100
O          0.87410        0.62050        3.20090
C          3.02530        0.14930        2.26870
N          4.10850       -0.18800        2.48860
H         -0.11560        2.07430        0.37900
H         -1.51520        1.36150       -0.43880
H         -1.36260        1.23060        1.32700
H          1.24250       -0.95940       -1.17760
H          1.57940        0.79400       -0.76540
H          1.03720       -1.45840        1.33090
H          1.63440        1.55580        1.59920
H          0.81970       -0.26290        3.58460
