20
gdb 9541	3.09345	1.48854	1.3313	1.7687	70.2	-0.2466	0.0577	0.3043	1026.3659	0.175841	-386.124721	-386.115636	-386.114692	-386.157975	34.155
C         -0.08450        1.52290        0.08260
C         -0.04330       -0.00400        0.00500
C         -1.42740       -0.58800       -0.27150
O         -1.97600       -0.20100       -1.52500
C          1.12460       -0.52630       -0.88950
C          1.99660       -0.71660        0.38240
C          0.70070       -0.64810        1.22760
O          0.69740       -0.01060        2.48040
H          0.90990        1.95380        0.24540
H         -0.45470        1.94810       -0.85670
H         -0.73470        1.86160        0.89720
H         -1.35810       -1.68100       -0.30990
H         -2.10750       -0.33480        0.55850
H         -2.25760        0.71570       -1.45720
H          0.87560       -1.47450       -1.37280
H          1.50260        0.15860       -1.65140
H          2.60750       -1.61820        0.46470
H          2.63970        0.15020        0.57040
H          0.30610       -1.65260        1.41600
H          1.12110        0.84790        2.38040
