14
gdb 8638	2.51533	1.79502	1.39469	4.5927	62.31	-0.3295	-0.0348	0.2946	935.2672	0.104785	-378.732465	-378.723658	-378.722714	-378.76561	30.674
C          0.05880        1.56730        0.02280
C          0.00620        0.04020       -0.00450
C         -1.44500       -0.51530        0.02860
O         -2.17450       -0.06490        1.15580
C         -2.19210       -0.05010       -1.16040
N         -2.73130        0.32730       -2.10810
C         -1.39470       -1.99940        0.00850
N         -1.31290       -3.15020        0.05930
H          1.09880        1.90170        0.05610
H         -0.40630        1.99550       -0.86960
H         -0.45950        1.96250        0.89940
H          0.50390       -0.35830       -0.89440
H          0.52260       -0.38690        0.86330
H         -1.74510       -0.41550        1.94610
