15
gdb 20895	5.66167	1.31501	1.15716	3.1899	63.84	-0.2252	0.0013	0.2265	1026.1587	0.11985	-395.984468	-395.976971	-395.976027	-396.016903	27.144
C         -0.33690        1.48930        0.24330
C          0.23250        0.10290       -0.05990
N          0.77980       -0.55210        1.11940
C          0.11550       -1.13220        2.15720
C          1.13090       -1.53000        2.99710
O          1.02890       -2.16830        4.17780
N          2.32130       -1.18660        2.45740
N          2.10240       -0.58700        1.30990
H          0.43780        2.13880        0.65910
H         -0.71500        1.94430       -0.67680
H         -1.16180        1.43360        0.95940
H         -0.53370       -0.55050       -0.48910
H          1.05960        0.16690       -0.76960
H         -0.95550       -1.21520        2.20590
H          1.93060       -2.30110        4.49710
