18
gdb 19161	3.23448	1.59146	1.28209	0.7657	67.65	-0.2628	0.0674	0.3302	994.7754	0.153067	-384.892884	-384.884639	-384.883695	-384.925739	30.602
O          0.08100        1.43560        0.02690
C         -0.02560        0.02860        0.17430
C         -1.45770       -0.49220        0.08380
C         -2.54840        0.27030        0.79650
C         -2.48130        0.29370       -0.70820
C         -1.60100       -1.98260        0.04040
O         -0.74860       -2.71170       -0.85290
C         -0.60520       -2.93510        0.55280
H          0.03770        1.63830       -0.91210
H          0.59350       -0.50070       -0.56270
H          0.37960       -0.19210        1.16840
H         -3.34600       -0.29000        1.27340
H         -2.24680        1.17210        1.31690
H         -2.16770        1.22080       -1.17350
H         -3.22080       -0.26360       -1.27300
H         -2.63880       -2.32270        0.02000
H          0.32570       -2.57760        0.98870
H         -0.93030       -3.91260        0.90730
