17
gdb 19457	4.91718	1.55055	1.52059	4.2621	72.12	-0.2964	0.0344	0.3307	885.5284	0.145625	-326.736748	-326.730326	-326.729382	-326.767172	25.616
N         -0.06770       -1.15320       -0.09420
C         -0.03870        0.00210       -0.04200
C         -0.01680        1.45310        0.00890
C         -0.07330        2.07520        1.45190
C          1.44700        1.75980        1.54540
C          1.41500        2.10260        0.02850
C          1.05580        3.59990        0.03820
C         -0.07650        3.57910        1.12110
H         -0.72540        1.85050       -0.72430
H         -0.78950        1.70960        2.18640
H          2.05820        2.39040        2.19650
H          1.65020        0.70540        1.73750
H          2.18740        1.76450       -0.66070
H          1.90910        4.21750        0.33040
H          0.70380        3.95280       -0.93500
H         -1.03970        3.92070        0.73260
H          0.16570        4.18540        1.99780
