15
gdb 14044	5.09948	1.61541	1.50787	2.0396	61.1	-0.2525	0.0105	0.263	844.4262	0.120425	-399.785028	-399.778372	-399.777428	-399.816618	24.138
C          0.00410        1.47040       -0.14030
O          1.33330        1.60790        0.39490
C          1.50020        0.18010        0.46910
C          0.05260       -0.07200       -0.01820
C         -0.94180       -0.77360        0.93730
O         -1.52520       -1.82830        0.13690
C         -0.93560       -1.71650       -1.07400
N         -0.07140       -0.81060       -1.27750
H         -0.74750        1.97490        0.48170
H         -0.07190        1.82610       -1.17410
H          2.26600       -0.19030       -0.22170
H          1.72590       -0.15850        1.48930
H         -0.45840       -1.23070        1.80560
H         -1.74790       -0.11860        1.28030
H         -1.26760       -2.44630       -1.80400
