15
gdb 9085	5.3279	0.83752	0.75638	1.9022	63.39	-0.2641	-0.0349	0.2292	1394.1427	0.116408	-399.813227	-399.804319	-399.803375	-399.847891	30.065
O         -0.00650        1.42830       -0.05650
C          0.02950        0.01590        0.02960
C          0.64170       -0.64880       -1.21910
C         -0.12690       -0.27090       -2.49340
C          0.60080       -0.71140       -3.74420
O          0.12230       -1.38440       -4.61820
C          0.74010       -0.42540        1.24670
N          1.32990       -0.75400        2.18440
H          0.89720        1.76090       -0.00040
H         -1.01820       -0.29200        0.12270
H          1.69210       -0.33920       -1.29910
H          0.64470       -1.73490       -1.07620
H         -1.13240       -0.70150       -2.50270
H         -0.22190        0.82290       -2.52750
H          1.65570       -0.35240       -3.80830
