14
gdb 18662	3.40816	2.57058	1.59262	3.9499	63.7	-0.2186	-0.0096	0.209	764.5948	0.109765	-378.739131	-378.732806	-378.731861	-378.769707	24.35
O         -0.02000       -0.01790        0.27470
C         -0.03730        1.17050        0.06410
N         -1.22080        1.86290       -0.14420
C         -1.32900        3.25270       -0.06760
C         -0.25230        4.03650        0.01740
C          1.08870        3.41090       -0.01870
C          1.64880        2.64070        1.14020
N          1.14530        1.93990       -0.04530
H         -2.04930        1.29020       -0.12320
H         -2.34370        3.63190       -0.07570
H         -0.34840        5.11310        0.06400
H          1.81320        3.87310       -0.68840
H          2.72240        2.57480        1.29050
H          1.04870        2.59590        2.04500
