17
gdb 11552	6.42628	1.06925	0.97008	2.1661	65.81	-0.2487	0.0581	0.3068	1215.2907	0.141584	-401.02366	-401.014867	-401.013922	-401.058106	30.331
C         -0.19550        1.23690        0.05440
O          0.40810       -0.05370       -0.04490
C          0.61610       -0.67190        1.14890
O          0.33650       -0.19660        2.22460
N          1.16580       -1.90430        0.93320
C          1.66470       -2.70350        2.00870
C          0.67930       -3.39070        2.91300
C          1.47310       -4.19500        1.91570
H          0.42760        1.91590        0.64240
H         -0.28870        1.59970       -0.97000
H         -1.18040        1.17270        0.52470
H          1.48170       -2.09700       -0.00420
H          2.58440       -2.34810        2.46890
H          0.93080       -3.46510        3.96430
H         -0.37050       -3.22410        2.70720
H          0.94790       -4.57470        1.04620
H          2.27520       -4.83080        2.27230
