16
gdb 6699	7.30086	0.71278	0.67074	5.1854	73.34	-0.2598	-0.0541	0.2056	1617.8706	0.126987	-383.718989	-383.709395	-383.708451	-383.754915	32.101
C         -0.07140        1.55160        0.03510
C         -0.02390        0.02460       -0.01580
O          0.64960       -0.44130       -1.17600
C          0.75060       -0.55290        1.18150
C          0.71690       -2.00440        1.25760
C          0.68450       -3.20880        1.34450
C          0.62810       -4.64480        1.39900
O          1.10950       -5.32200        2.27920
H          0.94150        1.96650        0.03320
H         -0.60220        1.94710       -0.83760
H         -0.59540        1.90450        0.92930
H         -1.05030       -0.37340        0.01710
H          0.15860       -0.14490       -1.94860
H          1.79390       -0.21890        1.10940
H          0.34860       -0.13350        2.11180
H          0.09170       -5.10750        0.54510
