22
gdb 6795	4.48233	0.86597	0.76102	2.1833	76.02	-0.2605	0.0746	0.3351	1548.6626	0.198009	-387.337527	-387.327184	-387.32624	-387.373646	36.43
C         -0.02780        1.46910        0.06480
C         -0.02400       -0.06460        0.04130
C          0.77160       -0.64300        1.21760
C         -1.45890       -0.58990        0.01990
O         -1.44940       -1.99640       -0.13030
C         -2.74070       -2.57310       -0.17930
C         -2.55240       -4.08140       -0.20960
O         -1.87640       -4.54200        0.94340
H          0.99390        1.86060        0.04590
H         -0.56200        1.88580       -0.79570
H         -0.50940        1.84890        0.97380
H          0.44920       -0.39740       -0.89220
H          0.33430       -0.33360        2.17480
H          0.77960       -1.73510        1.18780
H          1.80890       -0.29380        1.19770
H         -1.98010       -0.31180        0.95320
H         -2.01730       -0.12970       -0.81250
H         -3.32190       -2.28570        0.71190
H         -3.29040       -2.23020       -1.07180
H         -3.52930       -4.57540       -0.23270
H         -2.01280       -4.35560       -1.13040
H         -1.10190       -3.97490        1.03410
