19
gdb 1792	3.85855	1.92675	1.62737	1.2685	67.67	-0.2483	0.0747	0.3231	870.9935	0.169702	-310.912077	-310.903541	-310.902597	-310.944365	31.661
C          0.20590        1.57350        0.16570
C         -0.14510        0.10010       -0.07650
C          0.60690       -0.50060       -1.24950
O          0.33300        0.12750       -2.48200
C          2.00460       -1.05410       -1.07050
C          0.84000       -1.97740       -1.39100
C          0.35030       -3.01150       -0.40200
H          1.27670        1.69860        0.36130
H         -0.05610        2.19040       -0.70070
H         -0.34140        1.97300        1.02440
H          0.06780       -0.47620        0.82940
H         -1.22160        0.00700       -0.26670
H          0.76980        0.98590       -2.47890
H          2.72850       -0.85750       -1.85380
H          2.41810       -1.09100       -0.06660
H          0.80470       -2.29850       -2.42850
H          0.44670       -2.67040        0.63290
H         -0.70230       -3.26350       -0.57300
H          0.93190       -3.93540       -0.49380
