14
gdb 10388	2.51707	2.10737	1.41847	1.1384	59.13	-0.2663	-0.0664	0.1998	873.6027	0.104458	-419.659275	-419.651252	-419.650308	-419.693357	26.648
O         -0.13490       -0.04550       -0.24620
C          0.00980        1.07700        0.15650
C          1.30800        1.86420        0.03730
C          2.46550        1.16750       -0.69150
O          2.38530        2.08630       -1.80310
C          1.30250        2.81300       -1.21240
C          1.59310        2.56920        1.34460
O          0.84610        3.38760        1.81730
H         -0.81150        1.64930        0.63540
H          3.43650        1.22330       -0.18230
H          2.25620        0.13530       -0.98720
H          0.38960        2.77690       -1.81930
H          1.55120        3.85740       -0.99190
H          2.53750        2.27420        1.85290
