15
gdb 16196	3.27874	2.33895	1.52862	2.1799	67.83	-0.2432	-0.0295	0.2137	815.7862	0.119988	-362.668241	-362.661556	-362.660612	-362.699047	25.697
O          0.10040        0.05610       -0.12660
C          0.02640        1.25550       -0.01350
C         -1.24410        2.10930        0.07230
C         -0.70890        3.51960        0.00880
C          0.62620        3.56100       -0.03750
C          1.20450        2.19850        0.01190
C          2.43610        1.76610        0.74900
N          2.43600        1.81590       -0.70710
H         -1.93260        1.85610       -0.74290
H         -1.77970        1.88810        1.00510
H         -1.35830        4.38670        0.00360
H          1.23640        4.45360       -0.09430
H          3.04060        2.52370        1.24030
H          2.39440        0.79800        1.24170
H          2.29070        0.87220       -1.06920
