18
gdb 11527	5.46604	1.05808	0.9359	2.7334	69.03	-0.2521	-0.0276	0.2245	1232.398	0.150578	-384.923333	-384.9144	-384.913456	-384.957775	31.554
C          0.05540        1.34880        0.31260
C          0.07500       -0.14540       -0.00450
O          0.72760       -0.95090        0.96320
C          2.12280       -0.91150        0.92380
C          2.87940        0.03200        1.82480
C          2.83110       -1.45460        2.12040
C         -1.33210       -0.72310       -0.13300
O         -2.27020       -0.12410       -0.58800
H          1.05580        1.78080        0.24620
H         -0.60220        1.85450       -0.39860
H         -0.33440        1.51430        1.32120
H          0.55060       -0.30110       -0.99140
H          2.53910       -1.11940       -0.06300
H          3.80560        0.46660        1.46450
H          2.28950        0.67760        2.46470
H          2.20410       -1.77250        2.94550
H          3.72200       -2.05290        1.96810
H         -1.40820       -1.77340        0.22360
