22
gdb 15824	3.85765	0.97881	0.83158	1.3035	78.65	-0.2611	0.0809	0.342	1422.547	0.199061	-350.190574	-350.180836	-350.179892	-350.225424	35.41
C          0.19170        1.43050        0.11220
C         -0.04670       -0.08420        0.00450
C         -1.54010       -0.45580        0.04050
C         -2.25560       -0.10810        1.34050
O         -3.57570       -0.62840        1.25590
C          0.60120       -0.63510       -1.25500
C          2.07190       -0.96270       -1.28680
C          1.04730       -2.07220       -1.32990
H          1.25980        1.65940        0.04480
H         -0.31480        1.96210       -0.70240
H         -0.17880        1.84070        1.05640
H          0.44310       -0.56770        0.86350
H         -2.06500        0.03400       -0.79020
H         -1.64680       -1.53490       -0.11890
H         -1.70970       -0.54770        2.19280
H         -2.27430        0.98160        1.49390
H         -4.04810       -0.37900        2.05540
H          0.19150       -0.22050       -2.17430
H          2.63560       -0.74470       -2.18730
H          2.63880       -0.83710       -0.36940
H          0.93120       -2.68470       -0.44110
H          0.91000       -2.61340       -2.25940
