19
gdb 8489	3.02627	1.94914	1.52373	1.8014	72.34	-0.202	0.0773	0.2793	920.6884	0.163712	-365.014934	-365.00638	-365.005435	-365.04715	32.585
C         -0.18580        1.45850        0.05450
N          0.09910        0.03650        0.01010
C          1.16960       -0.44600       -0.91100
C          1.84380       -1.14350        0.27320
O          2.34540       -2.43120        0.25110
C          2.19520       -0.12490        1.33120
C          0.75330       -0.59340        1.16480
C         -0.05660       -1.20860        2.26540
H          0.69480        2.09540        0.25510
H         -0.61740        1.77340       -0.90120
H         -0.92790        1.65650        0.83490
H          0.77830       -1.13470       -1.66710
H          1.75440        0.34330       -1.40430
H          3.29550       -2.38440        0.09960
H          2.69780       -0.54300        2.19840
H          2.50960        0.88160        1.06490
H         -0.49040       -0.44400        2.92070
H         -0.87530       -1.80330        1.84910
H          0.56880       -1.86020        2.88280
