18
gdb 1085	4.30148	1.69852	1.68386	3.9293	67.57	-0.3136	0.0317	0.3453	854.0061	0.158246	-289.875063	-289.866599	-289.865655	-289.907126	31.164
C         -0.04400        1.55200        0.04740
C          0.00090        0.01480        0.03450
C          0.72250       -0.50320        1.28990
C         -1.42900       -0.54940       -0.01660
C          0.74260       -0.48040       -1.24210
C          2.12700       -0.02160       -1.33760
N          3.22040        0.34830       -1.39900
H          0.96290        1.98000        0.06000
H         -0.56620        1.94150       -0.83350
H         -0.57400        1.91110        0.93520
H          0.20260       -0.17050        2.19380
H          0.75380       -1.59820        1.30670
H          1.75170       -0.13490        1.33830
H         -1.96510       -0.19990       -0.90590
H         -1.42620       -1.64480       -0.03250
H         -1.99830       -0.23060        0.86210
H          0.74300       -1.57650       -1.26970
H          0.20780       -0.14150       -2.13730
