21
gdb 10210	3.04873	1.12529	0.90122	3.8531	76.93	-0.2371	0.0337	0.2707	1359.5363	0.187589	-366.298999	-366.289053	-366.288109	-366.33475	34.644
C         -0.08470        1.55400       -0.02840
C         -0.07680        0.02330       -0.04670
C          0.79310       -0.53880       -1.18010
N          0.80890       -1.99180       -1.25150
C         -0.31460       -2.70040       -1.86210
C         -0.15850       -2.87400       -3.37560
C          1.87070       -2.71100       -0.79490
O          1.96480       -3.92170       -0.82670
H          0.92520        1.95590        0.10950
H         -0.47700        1.96140       -0.96690
H         -0.70780        1.93600        0.78520
H          0.29740       -0.36610        0.90750
H         -1.10240       -0.35040       -0.15120
H          0.45380       -0.13710       -2.14390
H          1.82600       -0.19560       -1.04960
H         -0.37330       -3.67960       -1.38170
H         -1.23440       -2.15380       -1.62990
H         -1.03000       -3.39090       -3.78960
H         -0.06630       -1.90950       -3.88560
H          0.73110       -3.46920       -3.59700
H          2.66360       -2.05760       -0.37760
