16
gdb 18605	3.50975	2.1908	1.74602	1.0822	58.83	-0.2539	0.063	0.3169	774.976	0.131984	-420.857525	-420.850859	-420.849915	-420.888743	25.617
O          0.25270        1.26300       -0.50640
C          0.07560       -0.03210       -0.00150
C          0.07810       -0.21890        1.55110
C         -1.33370       -0.87210        1.47260
O         -2.41380       -0.14980        2.03930
C         -2.64900        0.93200        1.18080
O         -2.34530        0.49910       -0.14520
C         -1.39610       -0.55600       -0.04690
H         -0.63670        1.60890       -0.66480
H          0.77810       -0.70700       -0.50220
H          0.86470       -0.86470        1.94690
H          0.08980        0.72710        2.09720
H         -1.41360       -1.90870        1.79890
H         -3.70550        1.20950        1.23110
H         -2.01470        1.79540        1.44190
H         -1.65450       -1.32690       -0.77440
