13
gdb 19220	3.24384	2.07827	1.47506	2.0688	65.25	-0.245	-0.0321	0.2129	826.7906	0.094352	-361.390749	-361.383874	-361.382929	-361.421833	25.801
O         -0.09550        0.02130       -0.07340
C         -0.10670        1.20630        0.05850
C         -1.13340        2.28170       -0.07660
C         -0.94910        3.28140        1.01980
N         -0.04640        3.36130       -0.11880
C          1.01750        2.30060        0.13050
C          1.84150        2.44340        1.30590
C          2.51230        2.54430        2.29890
H         -1.99790        2.27750       -0.72990
H         -1.67880        4.08440        1.05310
H         -0.56140        2.97010        1.98580
H          1.62840        2.21090       -0.77440
H          3.11540        2.63470        3.16870
