13
gdb 4666	7.42979	1.24531	1.06784	4.5557	63.96	-0.2051	-0.0435	0.1615	1018.245	0.09585	-398.63584	-398.628618	-398.627673	-398.667363	26.089
N          0.08990        1.37170        0.15940
C         -0.06620        0.00110        0.05020
C         -1.13850       -0.83560        0.01990
C         -0.58990       -2.17130        0.00240
C         -1.31680       -3.44070       -0.03320
O         -0.79680       -4.53510       -0.05540
C          0.76670       -2.02940        0.01800
O          1.09670       -0.71050        0.05030
H          0.92390        1.71420       -0.30040
H         -0.72650        1.88770       -0.13650
H         -2.18010       -0.55720        0.00970
H         -2.42480       -3.33470       -0.03930
H          1.58260       -2.73050        0.00680
