21
gdb 13722	4.5805	0.97999	0.88225	2.0406	76.84	-0.2235	0.0818	0.3053	1388.0492	0.186928	-366.221243	-366.211665	-366.210721	-366.256288	33.835
C         -0.35000        1.33440       -0.25960
C          0.14870       -0.07530        0.00890
O          0.60520       -0.63190       -1.20690
C          1.10110       -1.94770       -1.06600
C          1.62690       -2.40640       -2.40160
C          1.57050       -3.84930       -2.77860
N          0.75970       -2.86760       -3.48360
C         -0.68300       -2.89880       -3.29080
H          0.45430        1.95460       -0.66500
H         -1.16880        1.31980       -0.98450
H         -0.71210        1.79400        0.66500
H          0.96550       -0.06260        0.75110
H         -0.65820       -0.69720        0.43370
H          1.92110       -1.97260       -0.32710
H          0.31410       -2.61920       -0.68840
H          2.46510       -1.80840       -2.75600
H          2.37770       -4.30850       -3.34360
H          1.06700       -4.52200       -2.08300
H         -1.00870       -3.32190       -2.32750
H         -1.07470       -1.88070       -3.36690
H         -1.12760       -3.50500       -4.08650
