18
gdb 16349	2.59729	2.19714	1.405	2.9623	73.17	-0.2348	-0.0164	0.2184	933.2623	0.152684	-347.808324	-347.800284	-347.79934	-347.840965	30.125
C         -0.45500        1.40910        0.03450
C          0.05060       -0.02520       -0.05680
C          1.37580       -0.23990       -0.86870
C          2.01250       -0.83840        0.40090
O          3.08240       -1.31580        0.66190
C          0.75960       -0.60320        1.19010
C          0.72450       -0.14270        2.63310
C          0.24280       -1.51280        2.28240
H          0.33480        2.08360        0.38280
H         -0.79720        1.76640       -0.94250
H         -1.29690        1.49400        0.73050
H         -0.74930       -0.68260       -0.41170
H          1.32210       -0.92830       -1.71640
H          1.86210        0.68300       -1.20150
H          1.68220       -0.04190        3.13270
H         -0.01050        0.61260        2.89130
H         -0.82540       -1.70390        2.29880
H          0.86720       -2.36230        2.53900
