16
gdb 12835	3.2029	2.39294	1.76035	2.3183	65.51	-0.2281	0.0115	0.2395	780.0791	0.132528	-379.891133	-379.884354	-379.88341	-379.921687	26.764
O         -0.31040        1.46160       -0.15170
C         -0.08060        0.07040       -0.10100
C          1.16510       -0.41210       -0.94110
N          1.92710       -0.48730        0.36200
C          0.71490       -0.48370        1.05310
N          0.13930       -1.04990        2.02970
C         -1.31480       -0.87930        1.71040
C         -1.40140       -0.66060        0.15390
H          0.51270        1.91240        0.06940
H          1.03640       -1.38740       -1.42180
H          1.57070        0.31620       -1.64720
H          2.61480       -1.21170        0.53490
H         -1.84900       -1.77910        2.02630
H         -1.74050       -0.03210        2.26190
H         -2.26750       -0.07660       -0.16400
H         -1.42360       -1.63190       -0.34890
