13
gdb 19580	3.50478	2.58349	2.11805	4.2164	56.25	-0.2532	-0.0142	0.239	667.3117	0.09665	-398.534067	-398.52849	-398.527546	-398.563553	22.414
O          0.00390       -0.00820        0.00360
C         -0.01430        1.17320       -0.05910
C         -1.05800        2.32830        0.03180
N         -0.02650        2.91910        0.96030
C          0.99690        2.35860        0.00450
C          0.67570        3.04900       -1.34300
O         -0.05890        2.21470       -2.26000
C         -0.79320        3.02740       -1.32360
H         -2.07650        2.22020        0.39790
H         -0.04170        3.94050        0.95510
H          2.02750        2.28070        0.34340
H          1.30050        3.81710       -1.78570
H         -1.45190        3.77660       -1.74920
