20
gdb 6619	3.44001	1.51977	1.37097	3.3568	70.33	-0.2347	0.0564	0.2911	1006.8246	0.175196	-386.121973	-386.112947	-386.112002	-386.155163	33.639
C          0.28430        1.53250        0.17350
C          0.00120        0.03020        0.02410
C          0.50630       -0.74600        1.24950
O         -1.40530       -0.18420       -0.13980
C          0.65660       -0.50790       -1.25060
C          0.27580       -1.92500       -1.73750
O         -0.08750       -1.42560       -3.04040
C          0.09390       -0.05880       -2.61880
H          1.35720        1.73000        0.26550
H         -0.09850        2.08380       -0.69000
H         -0.20400        1.92850        1.07180
H          0.02110       -0.38140        2.16260
H          0.28110       -1.81150        1.14950
H          1.58700       -0.62880        1.37940
H         -1.85000        0.14450        0.64800
H          1.73790       -0.36690       -1.17520
H          1.08630       -2.66140       -1.79230
H         -0.58290       -2.36180       -1.21450
H         -0.85970        0.47830       -2.55570
H          0.77960        0.48600       -3.27860
