14
gdb 18184	4.35013	1.82999	1.49765	2.022	67.22	-0.252	-0.008	0.2439	830.909	0.106897	-345.346756	-345.340113	-345.339169	-345.377506	25.715
C         -0.01500       -1.24790       -0.11960
C          0.00080       -0.04930       -0.04020
C          0.00540        1.40650        0.05130
C         -0.61180        1.94820        1.34190
C          0.19240        2.81140        1.96250
C          1.49200        2.92760        1.23420
O          2.21530        1.67440        1.17890
C          1.40930        2.03690        0.06650
H         -0.01660       -2.30770       -0.18430
H         -0.54350        1.81170       -0.81240
H         -1.58080        1.60870        1.68660
H         -0.02730        3.33540        2.88420
H          2.11120        3.81800        1.27520
H          1.93430        2.20260       -0.86980
