20
gdb 8443	2.68317	2.06821	1.7677	1.8054	74.34	-0.2424	0.083	0.3255	897.0851	0.174946	-348.984841	-348.976321	-348.975376	-349.016843	33.107
C         -0.15190        1.52730        0.10940
C          0.12770        0.06090        0.03090
O         -0.75070       -0.82370        0.74480
C          0.66040       -0.91130        1.00080
C          1.25600       -1.79050       -0.10010
C          0.70760       -0.75720       -1.16380
C         -0.33260       -1.29190       -2.14350
C          1.83990       -0.01940       -1.87680
H          0.71110        2.11390       -0.22010
H         -1.00340        1.79630       -0.52650
H         -0.39620        1.81090        1.13670
H          0.98040       -0.78390        2.02950
H          2.34810       -1.83640       -0.08670
H          0.84800       -2.80350       -0.14730
H         -1.15620       -1.76650       -1.60460
H         -0.74450       -0.48640       -2.76300
H          0.11030       -2.03280       -2.81900
H          2.37860       -0.69620       -2.54920
H          1.45530        0.81080       -2.48020
H          2.56570        0.39050       -1.16540
