10
gdb 23847	5.85091	1.66361	1.29531	1.1044	53.59	-0.27	-0.111	0.159	814.0431	0.060068	-454.70735	-454.701343	-454.700398	-454.737918	21.797
F          0.02370        0.11160       -0.32190
C         -0.03970        1.38800       -0.02090
N         -1.21460        1.87660        0.11000
O         -1.25460        3.24280        0.43170
C         -0.10150        3.97530        0.58830
N         -0.10330        5.20900        0.87840
C          1.14800        3.23910        0.39820
N          1.19450        1.99160        0.10430
H         -1.05380        5.57090        0.97640
H          2.06970        3.80300        0.51830
