13
gdb 574	10.97625	1.97735	1.8089	4.0027	53.78	-0.3029	0.0346	0.3375	669.5084	0.108659	-249.358446	-249.352356	-249.351412	-249.388285	21.499
N         -0.01160       -1.06410       -0.37890
C         -0.00650        0.05620       -0.09590
C          0.01780        1.47520        0.26670
C          1.40710        2.08370        0.15990
C          1.90500        2.59980       -1.16360
C          1.54750        3.56710       -0.06140
H         -0.67920        2.01050       -0.38880
H         -0.37200        1.57640        1.28690
H          2.14250        1.61380        0.80520
H          2.95100        2.45590       -1.40780
H          1.23820        2.53410       -2.01710
H          0.64100        4.15280       -0.17470
H          2.34810        4.08640        0.45280
