12
gdb 2966	5.21882	1.96302	1.58289	1.1751	53.01	-0.2605	-0.1046	0.156	745.4726	0.089362	-360.499843	-360.493115	-360.492171	-360.531087	22.838
O         -0.84640        1.22530       -0.62830
C          0.31580        0.95960       -0.47120
C          1.36060        1.97690       -0.00110
O          2.51990        1.62340        0.08030
C          0.89070        3.34450        0.32300
C          1.38390        3.91880        1.62400
N          1.90450        4.41240        0.36250
H          0.74790       -0.04600       -0.65480
H         -0.09190        3.61860       -0.04140
H          0.72720        4.59640        2.16130
H          2.01270        3.27950        2.23750
H          2.80980        3.97410        0.18740
