22
gdb 6132	2.66563	1.77979	1.53053	1.272	77.92	-0.2496	0.0727	0.3223	995.5435	0.198463	-350.204562	-350.195189	-350.194245	-350.237437	36.153
C         -0.70170        1.16510       -0.14090
C          0.04960       -0.15780       -0.14490
C          1.37980       -0.27550       -0.93470
O          2.01610        0.99120       -1.00980
C          1.92680       -1.19130        0.19310
C          0.78830       -0.68840        1.14030
C          1.27370        0.42090        2.07780
C          0.04440       -1.76850        1.92110
H         -0.04860        1.99830        0.12480
H         -1.11970        1.37610       -1.13120
H         -1.53490        1.13840        0.57020
H         -0.61810       -0.95240       -0.49920
H          1.30810       -0.72530       -1.93480
H          2.92020        0.84880       -1.30770
H          1.82480       -2.25260       -0.05440
H          2.95710       -1.00040        0.51030
H          1.83000        1.18690        1.53290
H          0.43410        0.90500        2.58950
H          1.93360        0.00380        2.84790
H          0.68260       -2.20780        2.69720
H         -0.84200       -1.35750        2.41920
H         -0.28770       -2.57920        1.26310
