15
gdb 9323	4.15381	1.05743	0.86519	4.3756	66.24	-0.2481	-0.037	0.211	1256.8987	0.118832	-395.987084	-395.978331	-395.977387	-396.021323	30.182
O         -0.00040        1.37330       -0.30150
C         -0.02600       -0.01310        0.01920
C         -1.48660       -0.41310        0.14880
N         -2.18200       -0.08010       -1.08060
C         -3.40680       -0.59880       -1.37010
N         -3.96510       -1.51020       -0.66240
C         -4.00930       -0.04490       -2.57580
N         -4.52700        0.37320       -3.52150
H          0.90020        1.62180       -0.52800
H          0.45190       -0.61020       -0.77090
H          0.49110       -0.21850        0.96750
H         -1.57780       -1.48740        0.32580
H         -1.94030        0.09960        1.00880
H         -1.90230        0.78420       -1.51850
H         -4.84810       -1.80240       -1.07260
