16
gdb 15530	2.82414	2.05756	1.34012	1.9053	72.62	-0.2392	0.0141	0.2533	932.3835	0.129	-346.573196	-346.565173	-346.564229	-346.605751	29.305
C         -0.17450        1.51960       -0.00660
C         -0.04640        0.03300       -0.02100
C          0.09750       -0.80170       -1.04480
C          0.19590       -2.21910       -0.56580
O          0.01680       -2.14820        0.84930
C         -0.05250       -0.78380        1.26490
C          1.06000       -0.43320        2.15790
C          1.96500       -0.12520        2.88650
H          0.62190        1.97180        0.59540
H         -0.12420        1.93390       -1.01640
H         -1.12570        1.83080        0.44360
H          0.14830       -0.52590       -2.09110
H         -0.58180       -2.87000       -0.99200
H          1.16960       -2.67660       -0.80360
H         -0.99440       -0.63840        1.81910
H          2.76570        0.13470        3.53420
