19
gdb 6404	3.27968	1.30896	1.00382	4.1481	68.75	-0.234	0.0396	0.2736	1184.5049	0.163717	-402.232535	-402.222842	-402.221898	-402.267699	34.313
C         -0.22660        0.86740       -0.48170
O          0.13740       -0.46910       -0.20330
C          0.81890       -0.66010        1.04210
C         -0.14510       -0.56920        2.22700
C          1.49780       -2.03520        0.98260
C          2.69190       -2.14220        0.02990
N          2.41770       -1.80660       -1.26240
O          3.78360       -2.53010        0.40120
H          0.64510        1.53850       -0.45210
H         -0.65050        0.88100       -1.48880
H         -0.98270        1.24900        0.21700
H          1.59040        0.12120        1.14230
H          0.39680       -0.71070        3.16670
H         -0.63810        0.40560        2.27460
H         -0.91630       -1.34210        2.15020
H          1.87380       -2.30080        1.97190
H          0.73940       -2.77490        0.69780
H          1.54690       -1.34600       -1.47800
H          3.18430       -1.77970       -1.91460
