15
gdb 3492	3.96236	3.76526	3.68303	1.4317	58.18	-0.2302	0.0964	0.3266	522.6969	0.128882	-308.516508	-308.511846	-308.510902	-308.544559	19.965
C         -0.02210        1.59170        0.00610
C          1.48800        1.80200       -0.00110
C          2.10100        0.63450        0.78120
C          0.94250       -0.24580        1.23720
C          0.04940        0.04780        0.01050
O          0.92520       -0.23340       -1.09550
C          2.01900        0.58810       -0.72640
H         -0.52120        1.99370        0.89230
H         -0.50910        1.97660       -0.89410
H          1.95680        2.77450       -0.06290
H          3.03720        0.71650        1.31600
H          1.21280       -1.30330        1.30340
H          0.48620        0.07480        2.17800
H         -0.87670       -0.51220       -0.09960
H          2.85410        0.56730       -1.41170
