14
gdb 10008	2.93034	1.15089	0.86151	4.3152	69.53	-0.2504	-0.0635	0.1869	1285.0404	0.102537	-382.526311	-382.516806	-382.515862	-382.563809	30.074
C         -0.04100        1.48450       -0.03270
C          0.00000        0.03020       -0.00230
C          0.04690       -1.17260        0.04430
C          0.07060       -2.62680        0.04550
C         -1.37130       -3.18180        0.05540
O         -1.71580       -4.10920        0.73110
C          0.78580       -3.14830       -1.22090
O          1.56330       -4.05970       -1.21020
H          0.96900        1.90760       -0.05270
H         -0.57210        1.84630       -0.91960
H         -0.55360        1.88340        0.84910
H          0.58830       -3.05230        0.90940
H         -2.06780       -2.64240       -0.62030
H          0.51800       -2.60100       -2.14890
