14
gdb 19424	4.32658	2.04669	1.65463	0.818	62.41	-0.2521	-0.0188	0.2332	769.6951	0.107514	-382.496151	-382.490079	-382.489135	-382.526188	23.957
C          0.01620        1.50710       -0.02660
O          1.19200        0.69890       -0.00340
C         -0.08360        0.04080        0.00750
C         -0.47500       -0.76910        1.19750
C         -0.97020       -1.95530        0.82620
C         -1.00750       -2.06030       -0.66640
O         -1.85400       -1.06370       -1.29280
C         -0.45340       -0.80230       -1.19160
H         -0.17810        2.07870        0.88000
H         -0.18010        2.03240       -0.96010
H         -0.37950       -0.39600        2.20980
H         -1.33570       -2.72890        1.48940
H         -0.95580       -3.01140       -1.18580
H          0.10230       -0.70410       -2.11980
