15
gdb 1912	6.1839	2.1237	1.87655	2.2367	56.77	-0.2469	0.0811	0.328	707.5833	0.124283	-345.619715	-345.613034	-345.612089	-345.649948	25.449
C          0.09250        1.50160       -0.05400
C         -0.11880        0.03560        0.13510
C         -1.43040       -0.76190        0.12250
C         -0.72760       -1.83380        1.04630
O         -0.57350       -3.13590        0.55830
C          0.53080       -0.94810        1.02180
O          0.89010       -0.86630       -0.37100
H          1.13220        1.76920        0.15140
H         -0.13970        1.79780       -1.08310
H         -0.55840        2.07450        0.61420
H         -2.25910       -0.25490        0.62390
H         -1.75460       -1.11930       -0.85820
H         -1.19620       -1.90640        2.03050
H         -0.03050       -3.05400       -0.23680
H          1.33490       -0.84960        1.74340
