14
gdb 8981	4.56601	0.98274	0.81665	0.319	64.62	-0.2553	-0.1011	0.1542	1295.8621	0.103122	-382.525251	-382.516476	-382.515532	-382.559815	29.708
O         -0.90090        1.45470        0.18370
C          0.15460        0.99180       -0.15760
C          1.44020        1.82180       -0.29590
O          2.44830        1.25300       -0.64710
C          1.34480        3.29380        0.01960
C          2.68580        4.02360       -0.15220
C          2.58310        5.44380        0.15580
C          2.47210        6.61190        0.41540
H          0.30740       -0.07940       -0.40690
H          0.56600        3.73280       -0.61630
H          0.95770        3.40310        1.04030
H          3.43960        3.55170        0.48840
H          3.04500        3.88470       -1.17830
H          2.39020        7.64610        0.64140
