11
gdb 4250	4.07429	2.11459	1.39209	4.6313	56.13	-0.2756	-0.0641	0.2115	789.376	0.074289	-430.781834	-430.775649	-430.774705	-430.812631	22.427
N         -0.08920        1.28180        0.37680
C         -0.01080        0.09900       -0.05040
N         -1.16290       -0.67030       -0.21220
C         -1.10510       -1.94110       -0.66860
N         -0.02870       -2.56850       -0.99520
C          1.17330       -1.89140       -0.87100
O          2.25030       -2.32410       -1.12860
O          1.13110       -0.54830       -0.39030
H          0.83370        1.70660        0.43840
H         -2.03460       -0.22450        0.03010
H         -2.06390       -2.44820       -0.75600
