18
gdb 9299	5.14013	0.95962	0.82098	2.9902	76.02	-0.2455	-0.0091	0.2364	1380.0783	0.152744	-381.153516	-381.144324	-381.143379	-381.187717	31.964
C          0.23410        1.00690       -0.79440
C         -0.30460        0.33890        0.47410
N         -1.46390       -0.53400        0.37020
C         -2.01720       -0.73780       -0.74800
N         -3.12620       -1.56910       -0.86620
C         -3.66680       -2.22220        0.32040
C         -3.70940       -1.77310       -2.09810
O         -4.67180       -2.47330       -2.30660
H          1.10070        1.62450       -0.54120
H          0.55890        0.27160       -1.53850
H         -0.51110        1.65960       -1.26180
H          0.49510       -0.25150        0.94100
H         -0.55570        1.11180        1.21270
H         -1.70620       -0.30760       -1.70490
H         -3.97010       -1.47150        1.05400
H         -4.52100       -2.81860        0.00440
H         -2.90280       -2.85420        0.77910
H         -3.18810       -1.21230       -2.89630
