14
gdb 1495	6.29547	1.48711	1.22126	0.8369	62.87	-0.2644	-0.0258	0.2386	949.7339	0.111582	-324.549529	-324.54171	-324.540766	-324.581766	27.313
C          0.04040        1.51050        0.11300
C          0.00100       -0.00120       -0.00100
O          0.68570       -0.53610        1.14630
C          0.75610       -1.87480        1.22500
N          0.24970       -2.63970        0.34100
C          1.45830       -2.30380        2.40540
C          2.03660       -2.71470        3.37590
H          1.07150        1.87460        0.12830
H         -0.47160        1.95890       -0.74350
H         -0.45670        1.84670        1.02720
H         -1.02300       -0.38880       -0.01610
H          0.49530       -0.36110       -0.90930
H          0.40930       -3.61500        0.58260
H          2.54860       -3.07380        4.23490
