15
gdb 3200	4.13485	3.4402	2.99423	1.7508	54.85	-0.2506	0.0837	0.3343	558.2522	0.128578	-345.663299	-345.65811	-345.657166	-345.692089	20.7
C         -0.01860        1.57540        0.01020
C          1.50280        1.92170       -0.02290
C          2.09780        0.50040       -0.02350
O          1.98090       -0.04800        1.28940
C          0.59880       -0.43110        1.39200
C          0.04510        0.03200        0.03070
O          1.18300       -0.24070       -0.80720
H         -0.53620        1.98420        0.88130
H         -0.53150        1.92540       -0.88810
H          1.77990        2.46490       -0.92980
H          1.83970        2.49130        0.84480
H          3.11860        0.37480       -0.38300
H          0.52610       -1.51680        1.52430
H          0.12530        0.07020        2.24340
H         -0.83140       -0.50090       -0.33410
