17
gdb 15979	3.55453	1.68849	1.28163	4.2301	71.07	-0.2271	0.0254	0.2524	964.1157	0.142148	-363.855644	-363.847907	-363.846963	-363.88847	28.164
O          0.00510        0.01140        0.32620
C          0.08130        1.22440        0.36680
N          1.18330        1.93030        0.04200
C          2.49620        1.46870       -0.41310
C          2.94910        2.95950       -0.47950
C          1.53990        3.33840        0.00420
C          0.66060        4.46510       -0.44460
C          1.13420        4.38370        0.99760
H         -0.75970        1.87730        0.67910
H          3.01540        0.84570        0.32090
H          2.46250        0.93820       -1.36890
H          3.75380        3.22190        0.20920
H          3.19840        3.31490       -1.48060
H          1.09350        5.22260       -1.09030
H         -0.38270        4.24640       -0.64670
H          0.40540        4.11090        1.75380
H          1.89000        5.08570        1.33540
