17
gdb 15114	7.86432	0.79428	0.75184	2.6116	72.17	-0.2478	0.0287	0.2766	1476.0795	0.140366	-363.777284	-363.768553	-363.767609	-363.811565	30.611
C          0.07700       -1.09760        0.37200
C          0.07980        0.08490        0.16390
C          0.04830        1.51850       -0.09160
O          1.35650        2.05180       -0.02700
C          1.38130        3.44640       -0.26620
C          2.80950        3.91440       -0.25620
C          3.12330        5.27660        0.24370
N          3.52460        4.09050        1.01430
H          0.08300       -2.14330        0.55690
H         -0.39780        1.70990       -1.08310
H         -0.60760        2.01170        0.64710
H          0.91240        3.67590       -1.23900
H          0.80200        3.98090        0.50840
H          3.42500        3.48930       -1.04570
H          3.94230        5.83940       -0.19430
H          2.30060        5.88800        0.60770
H          2.88670        3.94070        1.79290
