14
gdb 1881	4.95313	2.2523	1.85288	4.9008	53.8	-0.2388	0.0378	0.2766	692.3753	0.114863	-361.755551	-361.749005	-361.748061	-361.786087	24.175
O         -0.06560        1.44470        0.01630
C         -0.00130        0.02710        0.01710
C          0.58600       -0.52370        1.34490
N         -0.58670       -0.67450        2.17850
C         -1.78130       -0.69270        1.50670
O         -2.87270       -0.86760        1.99880
C         -1.44480       -0.48170        0.02640
H          0.83260        1.78980        0.03840
H          0.57360       -0.33830       -0.84350
H          1.10630       -1.47910        1.18060
H          1.30560        0.18270        1.77460
H         -0.55370       -0.87300        3.16530
H         -2.12900        0.22840       -0.43900
H         -1.54110       -1.44210       -0.49070
