17
gdb 9652	3.37261	1.35304	1.32826	3.6282	70.11	-0.2579	0.0341	0.292	1025.5351	0.140561	-363.856719	-363.847972	-363.847028	-363.889863	31.261
C         -0.33760        1.10240       -0.15300
O          0.52760        0.00620        0.10420
C          0.96760       -0.62130       -1.04500
C          1.54440       -1.98250       -0.89560
C          0.18180       -1.83600       -1.58090
C         -1.05820       -2.30990       -0.84120
C          0.15470       -1.98800       -3.01110
N          0.13040       -2.09340       -4.16390
H          0.15910        1.86310       -0.77120
H         -1.25720        0.78300       -0.66060
H         -0.59220        1.53840        0.81490
H          1.39590        0.04140       -1.79720
H          2.40160       -2.25460       -1.49910
H          1.51780       -2.41600        0.09800
H         -0.99830       -2.00590        0.20580
H         -1.96430       -1.87780       -1.27560
H         -1.14740       -3.39920       -0.88640
