16
gdb 16286	3.3955	1.76941	1.43067	0.9156	72.12	-0.2321	0.0321	0.2642	912.9913	0.128661	-346.5322	-346.524522	-346.523578	-346.563818	29.442
C         -0.06020        1.56050       -0.00470
C          0.09780        0.05710        0.03910
O          1.15690       -0.45610       -0.82520
C          1.70690       -1.20830        0.24780
C          2.21170       -0.31770        1.32720
C          0.71850       -0.63820        1.26730
C         -0.00840       -1.23560        2.32900
C         -0.64820       -1.72580        3.22350
H          0.85410        2.07290        0.30550
H         -0.30560        1.88260       -1.02160
H         -0.87640        1.86760        0.65740
H         -0.84190       -0.44100       -0.22730
H          2.02550       -2.22600        0.05540
H          2.72170       -0.81100        2.14780
H          2.57390        0.67540        1.07940
H         -1.20790       -2.16320        4.01250
