16
gdb 11884	4.4304	1.66232	1.38164	4.1862	65.05	-0.2617	0.0145	0.2762	904.4651	0.131254	-383.777504	-383.770622	-383.769678	-383.8087	26.497
O          0.00260        0.06040       -0.27610
C         -0.06780        1.24510       -0.13410
C         -1.19970        2.06850        0.47540
C         -0.89170        3.49960        0.01950
C          0.61200        3.43760       -0.20110
C          1.43420        4.48760       -0.86360
C          1.62160        4.18860        0.61670
O          0.93410        2.08640       -0.52110
H         -2.16650        1.67760        0.15700
H         -1.14020        1.95990        1.56420
H         -1.40370        3.71970       -0.92340
H         -1.17320        4.26570        0.74440
H          2.21130        4.15280       -1.54110
H          0.94450        5.41210       -1.15140
H          1.26320        4.91060        1.34290
H          2.52030        3.65490        0.90340
