13
gdb 19637	6.02015	1.73684	1.66957	4.5729	66.39	-0.2487	0.009	0.2577	766.8972	0.09628	-324.227813	-324.222057	-324.221113	-324.257568	22.795
N          0.09290       -1.11720       -0.07160
C          0.04100        0.04000       -0.03300
C         -0.03060        1.45060        0.02280
C         -0.91460        2.44190        0.84170
C         -0.82990        3.45560       -0.28740
C          0.20960        3.46440        0.82410
C          1.09910        2.49410       -0.00840
C          0.06780        2.48540       -1.11110
H         -1.69280        2.26800        1.57080
H         -1.53800        4.21560       -0.58460
H          0.45280        4.23240        1.54400
H          2.16350        2.30870       -0.04590
H          0.17790        2.29180       -2.16900
