20
gdb 12222	2.92285	1.54822	1.31487	3.0006	75.13	-0.2434	-0.021	0.2224	1039.0246	0.175713	-349.008966	-349.000094	-348.99915	-349.042701	32.497
C         -0.25660        1.35320       -1.13780
C          0.12100       -0.07180       -0.74420
C          1.46900       -0.57660       -1.33740
C          2.14440       -0.50020        0.06680
C          3.09400        0.65470        0.23650
O          4.10440        0.62000        0.89290
C          0.71080       -0.28460        0.69140
C          0.50640        0.75720        1.78470
H          0.56810        2.05850       -0.98710
H         -0.52760        1.39340       -2.19840
H         -1.11330        1.71660       -0.56060
H         -0.72900       -0.72770       -0.95570
H          1.42960       -1.59790       -1.72130
H          1.91180        0.06120       -2.10920
H          2.65600       -1.39970        0.41480
H          2.80420        1.58820       -0.30280
H          0.37640       -1.25490        1.07160
H          0.78740        1.76520        1.46590
H         -0.54340        0.79060        2.09570
H          1.10650        0.51220        2.66740
