20
gdb 16067	3.05956	1.66243	1.37591	1.8099	74.7	-0.228	0.0738	0.3018	1014.0643	0.176291	-348.967883	-348.959392	-348.958448	-349.000784	31.716
C         -0.20890        1.54420        0.03990
C          0.09550        0.04260       -0.06510
C          0.78240       -0.50520        1.15470
C          2.26890       -0.33630        1.47730
O          2.34950       -1.67460        2.03480
C          0.98570       -1.91600        1.67160
C          0.05690       -0.99120        2.40560
C          0.30830       -0.50980        3.81700
H          0.70900        2.12650        0.17540
H         -0.70430        1.91120       -0.86420
H         -0.86250        1.75310        0.89310
H         -0.83870       -0.50870       -0.22990
H          0.71920       -0.14320       -0.95020
H          2.89280       -0.26030        0.57800
H          2.56610        0.43610        2.19640
H          0.73790       -2.89440        1.27330
H         -0.98680       -1.20420        2.17550
H          1.37690       -0.51390        4.04410
H         -0.07710        0.50340        3.97390
H         -0.18250       -1.16930        4.54080
