20
gdb 18643	2.7042	2.13195	1.72126	1.3707	73.8	-0.2448	0.069	0.3139	886.8813	0.178667	-349.00505	-348.997277	-348.996333	-349.036589	30.661
C         -0.08180        1.57110       -0.03850
C          0.00330        0.04230        0.00200
C          0.68270       -0.58230       -1.24290
C          1.31820       -1.90790       -0.76220
C          1.56340       -1.73640        0.73330
C          2.26850       -0.48930        1.21190
O          2.95660        0.37220        0.34460
C          0.76790       -0.52230        1.19860
H          0.91920        2.00830       -0.08920
H         -0.65080        1.91000       -0.91150
H         -0.58030        1.96530        0.85380
H         -1.01790       -0.35810        0.07530
H         -0.02920       -0.73830       -2.05910
H          1.45960        0.09290       -1.60570
H          0.62630       -2.74600       -0.90600
H          2.22850       -2.15440       -1.32150
H          1.65100       -2.63050        1.34270
H          2.72150       -0.56250        2.20160
H          3.76300       -0.07300        0.06370
H          0.26610       -0.50790        2.16130
