20
gdb 10770	2.55779	1.98773	1.34163	2.7454	74.93	-0.2319	-0.0113	0.2205	1004.5983	0.175141	-349.026836	-349.017643	-349.016698	-349.060385	33.564
C         -0.25160        1.56580       -0.02550
C          0.01380        0.06430        0.01150
C          1.20850       -0.41810       -0.89660
C          1.70090        0.37300       -2.09940
C          2.05360       -0.43130        0.38500
O          3.22480       -0.29360        0.60290
C          0.80570       -0.43560        1.27930
C          0.83280        0.33510        2.59090
H          0.65840        2.15060        0.14760
H         -0.65600        1.86750       -0.99700
H         -0.97780        1.85340        0.74140
H         -0.91790       -0.47860       -0.16540
H          1.02510       -1.46130       -1.18580
H          1.89650        1.41810       -1.84450
H          2.63780       -0.05410       -2.46930
H          0.97340        0.35200       -2.91710
H          0.53400       -1.48280        1.46740
H          1.10360        1.38350        2.43920
H         -0.13910        0.30340        3.09370
H          1.57650       -0.10040        3.26490
