16
gdb 11247	5.7122	1.30523	1.13904	3.6389	69.12	-0.2444	-0.0226	0.2218	1036.6768	0.131605	-379.964518	-379.956862	-379.955917	-379.997335	27.168
C         -0.07340        1.54740        0.03090
C          0.04910        0.02520       -0.00090
C          0.84510       -0.51430       -1.23500
N          1.90470       -1.29630       -0.58560
C          2.90010       -2.00990       -1.20310
O          3.76130       -2.63090       -0.62260
C          1.74840       -1.16620        0.79800
N          0.76480       -0.46760        1.19520
H          0.91710        2.01420        0.02260
H         -0.63450        1.91110       -0.83620
H         -0.59100        1.86530        0.93920
H         -0.95760       -0.40860        0.01680
H          0.23660       -1.14430       -1.88940
H          1.27150        0.29810       -1.83330
H          2.82490       -1.95540       -2.30590
H          2.46620       -1.66460        1.43760
