7
gdb 9	160.28041	8.59323	8.59321	0.7156	28.78	-0.2609	0.0613	0.3222	177.1963	0.05541	-116.609549	-116.60555	-116.604606	-116.633775	12.482
C         -0.01780        1.46440        0.01010
C          0.00210        0.00950        0.00200
C          0.01830       -1.19180       -0.00450
H          0.99780        1.87430        0.00260
H         -0.54220        1.85800       -0.86720
H         -0.52530        1.84830        0.90150
H          0.03230       -2.25310       -0.01030
