12
gdb 8970	5.55919	1.03882	0.88003	1.6396	64.91	-0.28	-0.0478	0.2323	1204.5497	0.080144	-381.286965	-381.27865	-381.277706	-381.320713	28.557
O          0.00030       -0.08430        0.00320
C          0.00090        1.12160        0.00530
O          1.10870        1.88620       -0.00270
C          2.34680        1.13860       -0.01470
C          3.45530        2.07560       -0.01930
C          4.39550        2.82150       -0.02340
C         -1.18870        1.94240        0.01750
C         -2.20920        2.57570        0.02790
H          2.37820        0.48490        0.86360
H          2.36530        0.49180       -0.89840
H          5.22490        3.48500       -0.02690
H         -3.11170        3.13710        0.03700
