20
gdb 17458	4.04448	1.8793	1.60804	0.3029	77.29	-0.2365	0.0843	0.3208	888.1366	0.179008	-311.856191	-311.849129	-311.848185	-311.886817	29.265
C         -0.11510        1.50120        0.02040
C          0.01200       -0.00490       -0.00640
C         -0.79610       -0.82500        0.97000
C          0.71170       -0.79240        1.08880
C          1.54740       -1.88720        0.45410
C          0.87180       -3.02100       -0.27890
C          1.34880       -1.81480       -1.04840
C          0.38650       -0.66060       -1.34870
H          0.79730        1.98660       -0.34680
H         -0.94700        1.84430       -0.60710
H         -0.30140        1.86430        1.03650
H         -1.35750       -0.27490        1.71970
H         -1.29480       -1.72950        0.64070
H          1.13760       -0.28650        1.94900
H          2.52510       -2.06960        0.88550
H          1.44260       -3.93580       -0.40350
H         -0.19050       -3.19230       -0.14680
H          2.18140       -1.95760       -1.72910
H         -0.49660       -0.98160       -1.91480
H          0.90270        0.07970       -1.97040
