17
gdb 8507	3.72367	2.14581	1.64618	1.2704	68.55	-0.2313	0.072	0.3033	832.3784	0.140851	-363.763988	-363.756666	-363.755722	-363.794965	28.63
C          0.05130        1.40700       -0.13480
C          0.00740       -0.07930       -0.01550
O          0.53030       -0.91730       -1.09320
C          0.06890       -1.89580       -0.11070
C          0.22100       -3.35330       -0.40150
C          0.50150       -1.02590        1.12300
N         -0.84480       -1.01880        1.78320
C         -1.17550       -1.04070        0.32080
H          1.08300        1.75540       -0.24270
H         -0.51960        1.74170       -1.00630
H         -0.38080        1.85610        0.76410
H          1.27570       -3.61070       -0.53830
H         -0.17630       -3.94860        0.42740
H         -0.32210       -3.62240       -1.31260
H          1.44820       -1.01150        1.66590
H         -1.03720       -1.93240        2.20210
H         -2.19230       -1.04350       -0.07560
