16
gdb 16204	3.16139	2.31311	1.52755	2.5689	65.94	-0.2464	0.0162	0.2626	831.8892	0.133262	-379.918918	-379.912103	-379.911159	-379.949956	26.039
N         -0.13240        1.21910       -0.33080
C         -0.05840       -0.00930       -0.04310
O          1.08060       -0.70790        0.20610
C          0.76200       -2.07340        0.56070
C         -0.65160       -2.33090        0.01780
C         -1.23390       -0.93020        0.03360
C         -2.44240       -0.48130        0.78240
N         -2.45800       -0.58540       -0.68030
H          0.78570        1.66260       -0.33100
H          1.53080       -2.71290        0.12330
H          0.80470       -2.16580        1.65210
H         -0.61450       -2.70630       -1.00970
H         -1.20880       -3.04720        0.62420
H         -3.04450       -1.22150        1.30360
H         -2.40910        0.50610        1.23330
H         -2.32400        0.34470       -1.07900
