23
gdb 1130	4.07049	1.34846	1.28363	0.0889	77.99	-0.2993	0.0791	0.3784	1110.9484	0.216054	-276.20592	-276.196248	-276.195304	-276.240153	35.464
C         -0.07720        1.58730        0.06830
C          0.02780        0.05580        0.03730
C          0.87000       -0.44870        1.21770
C         -1.37980       -0.57020        0.00750
C         -1.46690       -2.10010       -0.15400
C         -2.92620       -2.56080       -0.02920
C         -0.86170       -2.58610       -1.47870
H          0.91330        2.05420        0.05300
H         -0.64080        1.96640       -0.79080
H         -0.58940        1.92730        0.97680
H          0.54810       -0.21810       -0.89060
H          0.37830       -0.22240        2.17200
H          1.03430       -1.52950        1.17700
H          1.85360        0.03290        1.23060
H         -1.90030       -0.28680        0.93400
H         -1.95090       -0.10650       -0.81010
H         -0.90470       -2.56720        0.66600
H         -3.54420       -2.12710       -0.82500
H         -3.00700       -3.65040       -0.10470
H         -3.36020       -2.25730        0.92940
H          0.20250       -2.34600       -1.56030
H         -0.96240       -3.67190       -1.57970
H         -1.37340       -2.12550       -2.33290
