8
gdb 334	5.87397	2.89114	2.05305	2.3093	40.41	-0.3463	-0.0464	0.3	546.2842	0.04917	-300.148891	-300.142982	-300.142038	-300.178386	19.442
O         -0.04620        1.43960        0.01030
C          0.03760        0.03760        0.00190
C          0.69190       -0.48420       -1.21910
N          1.19960       -0.85570       -2.18690
C          0.71500       -0.49730        1.20450
N          1.24100       -0.87910        2.15840
H          0.84660        1.80730        0.00370
H         -0.99740       -0.32420        0.00980
