17
gdb 6916	4.87133	1.06349	0.99686	4.6603	69.25	-0.2668	0.0345	0.3014	1180.6518	0.140486	-363.864858	-363.856173	-363.855229	-363.898147	31.784
C          0.06240        1.56170       -0.18020
C          0.01130        0.06190        0.00940
O         -1.16220       -0.52770       -0.49120
C          1.27390       -0.76920       -0.04370
C          0.50210       -0.62230        1.25400
C          1.07800        0.13470        2.44000
C          1.97150       -0.70090        3.24580
N          2.67310       -1.36860        3.87570
H          0.97170        2.00400        0.23520
H          0.04560        1.80690       -1.24900
H         -0.80510        2.03930        0.28640
H         -1.15060       -0.44030       -1.45120
H          1.22710       -1.72910       -0.54470
H          2.22520       -0.25320       -0.13200
H         -0.09270       -1.48630        1.53180
H          1.64350        1.01290        2.11180
H          0.27500        0.50430        3.08900
