14
gdb 14637	5.8681	0.69258	0.62424	1.1775	87.09	-0.2419	-0.0136	0.2284	1714.7069	0.103797	-308.188935	-308.179627	-308.178683	-308.224701	31.448
C          0.08090        1.51730       -0.03420
C          0.04090        0.06370        0.02930
C          0.00420       -1.13710        0.08140
C         -0.03770       -2.59960        0.14510
C         -1.38990       -3.14900        0.06020
C         -2.50440       -3.61220       -0.00930
C         -3.75940       -4.13280       -0.08760
C         -4.87230       -4.59600       -0.15700
H          0.67010        1.86230       -0.89080
H         -0.92690        1.93450       -0.13470
H          0.52800        1.94310        0.87060
H          0.57300       -3.02490       -0.66430
H          0.43110       -2.94490        1.07790
H         -5.85110       -5.00230       -0.21810
