15
gdb 8853	4.80954	1.31465	1.04604	3.7931	60.52	-0.2676	-0.0155	0.2521	1075.2332	0.117515	-437.000781	-436.991961	-436.991017	-437.034664	29.366
C         -0.00740        1.37640       -0.04440
O          0.03920       -0.05610        0.02150
C          0.66510       -0.54830        1.10450
O          1.16250        0.12220        1.97630
N          0.65600       -1.94190        1.07370
C          0.03350       -2.69350       -0.01610
C          1.26390       -2.63110        2.12200
O          1.31130       -3.83470        2.19110
H          1.00230        1.79260       -0.06270
H         -0.53520        1.60830       -0.96890
H         -0.54300        1.78260        0.81660
H          0.50910       -2.45550       -0.96980
H          0.17010       -3.74910        0.21500
H         -1.03110       -2.46090       -0.08610
H          1.68780       -1.94340        2.86580
