18
gdb 17436	2.73551	2.63565	1.89775	1.5739	70.48	-0.2265	0.0842	0.3107	803.6361	0.153034	-347.748816	-347.741535	-347.740591	-347.779737	28.89
C          0.03210        1.57270        0.02620
C          0.06270        0.05350       -0.04190
C          0.80020       -0.66130       -1.17710
C          2.24940       -0.79060       -0.67610
O          2.34290       -0.13320        0.58540
C          1.04030       -0.72930        0.89850
C          0.80770       -0.94450        2.36080
C          1.23830       -1.79420       -0.25370
H          1.04870        1.97290        0.01680
H         -0.51360        1.99090       -0.82670
H         -0.46700        1.92050        0.93790
H         -0.94020       -0.37590        0.06210
H          0.53700       -0.72000       -2.22600
H          3.12670       -0.85230       -1.30600
H          0.81710        0.01470        2.88990
H         -0.16300       -1.42100        2.52920
H          1.58920       -1.57810        2.78990
H          1.16700       -2.87120       -0.31410
