19
gdb 13596	4.40144	1.19956	1.117	1.5632	73.95	-0.2263	-0.0219	0.2044	1160.2326	0.163556	-365.054161	-365.045075	-365.04413	-365.088267	32.439
C          0.46470        1.59860        0.23710
C          0.92360        0.17110       -0.04380
C          0.18260       -0.49450       -1.19430
O         -0.66450        0.09140       -1.83890
C          0.57830       -1.91440       -1.47750
C         -0.42300       -2.81390       -2.14550
N          0.77070       -2.42410       -2.85150
C          0.64290       -1.52690       -3.99810
H          0.60440        2.23230       -0.64220
H         -0.59900        1.62420        0.48770
H          1.02760        2.02960        1.06950
H          1.99770        0.13360       -0.27600
H          0.80770       -0.46940        0.84240
H          1.27830       -2.34540       -0.76540
H         -0.48500       -3.85450       -1.83660
H         -1.36350       -2.34020       -2.42190
H         -0.14820       -0.77620       -3.89740
H          1.59830       -1.01610       -4.15490
H          0.44340       -2.14600       -4.87820
