18
gdb 13005	2.72474	2.45561	1.52371	1.7945	72.98	-0.2313	0.0148	0.2461	886.4044	0.152947	-347.809426	-347.801636	-347.800691	-347.840978	29.917
C         -0.08480        1.49890        0.02240
C         -0.05510        0.00390       -0.02550
C          0.03810       -0.77760       -1.10680
C          0.04700       -2.25390       -0.76990
C          0.01410       -2.24920        0.75260
O          1.14250       -1.61810        1.36650
C         -0.08460       -0.85350        1.21690
C         -0.73100       -0.39570        2.49410
H          0.76520        1.89620        0.59140
H         -0.04970        1.92850       -0.98230
H         -0.99180        1.86980        0.51590
H          0.14190       -0.41370       -2.12380
H         -0.82570       -2.77820       -1.18170
H          0.93710       -2.76610       -1.15560
H         -0.40470       -3.08820        1.30350
H         -0.22140        0.48600        2.89790
H         -1.78070       -0.12960        2.32910
H         -0.68450       -1.18620        3.24690
