15
gdb 16762	5.57984	1.50373	1.3047	2.9874	61.22	-0.2524	0.0118	0.2642	921.8053	0.119573	-399.790481	-399.783505	-399.782561	-399.821891	25.998
O          0.11570        1.36100        0.10940
C          0.01000       -0.03700        0.05900
C         -1.42170       -0.47540        0.07010
N         -2.41460        0.32490        0.05560
C         -3.60100       -0.49880        0.02750
C         -3.75160       -1.39400       -1.18720
C         -3.08790       -1.92860        0.04740
O         -1.67030       -1.81010        0.10470
H         -0.78960        1.70240        0.07940
H          0.49280       -0.43950       -0.84590
H          0.52330       -0.49870        0.91610
H         -4.46970       -0.13270        0.56000
H         -4.74560       -1.77640       -1.39170
H         -3.14650       -1.18000       -2.06180
H         -3.46470       -2.76750        0.61670
