15
gdb 2167	3.76965	2.8961	1.75351	2.7236	56.55	-0.2511	-0.0276	0.2234	706.8248	0.125666	-345.687671	-345.681103	-345.680159	-345.718144	24.687
O          0.40460        1.13260        0.59860
C         -0.06700       -0.05750        0.03600
C         -1.56230       -0.10310       -0.29750
C         -1.65610       -1.29170       -1.28480
C         -0.38270       -1.18420       -2.15500
C          0.58270       -0.35390       -1.31590
O          1.65030        0.10380       -1.64350
H          1.24410        1.31700        0.15010
H          0.16590       -0.92380        0.68750
H         -2.19640       -0.22560        0.58270
H         -1.84210        0.83690       -0.78770
H         -1.65480       -2.23540       -0.72890
H         -2.57300       -1.27010       -1.87700
H          0.05900       -2.14500       -2.43450
H         -0.56150       -0.63900       -3.08880
