12
gdb 18414	3.65923	1.91519	1.59402	4.8097	60.24	-0.2843	-0.017	0.2673	791.0535	0.084291	-377.494559	-377.488154	-377.48721	-377.525366	23.682
N         -0.06050        1.20910        0.00560
C         -0.06420       -0.03680        0.05400
O          0.99060       -0.95710        0.17590
C          0.06890       -2.04170       -0.03460
C         -0.92790       -2.10480        1.08610
C         -0.61360       -1.70700        2.43310
N         -0.37010       -1.40330        3.52120
C         -1.10790       -1.10320       -0.07420
H          0.88080        1.59250        0.10080
H          0.38240       -2.86570       -0.66010
H         -1.62170       -2.93870        1.01750
H         -2.00800       -1.07580       -0.66970
