13
gdb 18548	4.35093	2.05671	1.62142	3.169	58.08	-0.2459	-0.0395	0.2064	754.6103	0.096523	-398.612556	-398.606506	-398.605562	-398.643053	22.737
O         -0.02240        0.05850       -0.60550
C         -0.00160        1.15830       -0.14850
C         -1.09300        2.12440        0.37350
C          0.00010        3.20340        0.56380
O          0.32480        3.46680        1.94330
C          1.37760        2.65790        2.22460
N          1.90070        1.94290        1.31350
C          1.12100        2.20810        0.09980
H         -1.85810        2.35680       -0.37290
H         -1.58760        1.80900        1.29660
H         -0.14540        4.15420        0.05410
H          1.71460        2.70160        3.25390
H          1.76440        2.43510       -0.75360
