10
gdb 356	10.36953	2.31178	1.91314	3.7746	40.92	-0.2683	-0.0862	0.1821	600.9282	0.070937	-342.329232	-342.322736	-342.321792	-342.359811	20.46
C         -0.04220        1.37510        0.05960
O          0.03050       -0.05540       -0.04890
C          0.65560       -0.51860       -1.14320
O          1.14350        0.15030       -2.01140
C          0.64740       -2.05460       -1.10780
O          1.14610       -2.71030       -1.97700
H          0.96230        1.80440        0.08500
H         -0.58340        1.79240       -0.79300
H         -0.57200        1.57730        0.98960
H          0.14690       -2.49160       -0.22070
