18
gdb 8921	2.40737	1.7268	1.28705	4.8427	68.33	-0.2549	0.0244	0.2792	1027.0181	0.153183	-381.122537	-381.113329	-381.112385	-381.156347	32.942
C          0.31390        1.05650        0.47890
N         -0.12750        0.03880       -0.47800
C         -1.44290       -0.55720       -0.22060
C         -2.14700       -0.87360       -1.54110
C         -1.21420       -1.88370        0.57310
O         -0.18260       -2.62620       -0.02020
C         -0.93430       -1.61580        2.00520
N         -0.72150       -1.40210        3.12130
H          1.28170        1.45140        0.15830
H         -0.39220        1.89670        0.57490
H          0.44400        0.61170        1.46770
H         -0.10740        0.42010       -1.41550
H         -2.07650        0.11070        0.38180
H         -1.55300       -1.58020       -2.12830
H         -3.12920       -1.31950       -1.36270
H         -2.29390        0.03840       -2.12820
H         -2.12900       -2.48590        0.53600
H          0.44910       -1.94120       -0.31050
