18
gdb 7209	3.94757	1.05213	0.89564	3.4346	78.9	-0.2496	-0.0443	0.2054	1345.3278	0.150267	-347.808305	-347.798166	-347.797222	-347.845235	34.102
C          0.07210        1.41600        0.22020
C          0.04730       -0.02780        0.05960
C          0.00740       -1.22700       -0.07430
C         -0.04070       -2.66680       -0.25710
O         -1.08450       -3.23930       -0.49420
C          1.29720       -3.39580       -0.12920
C          1.81390       -3.28940        1.31990
C          1.18190       -4.84740       -0.59590
H          1.08540        1.81590        0.11010
H         -0.57030        1.90370       -0.52080
H         -0.29480        1.69890        1.21310
H          2.00500       -2.85360       -0.77210
H          2.80490       -3.74580        1.40080
H          1.88960       -2.24780        1.64320
H          1.14300       -3.81410        2.00850
H          0.83140       -4.90620       -1.62950
H          2.15390       -5.34560       -0.52950
H          0.46720       -5.39730        0.02250
