17
gdb 4545	3.90061	1.66281	1.18198	1.9887	73.19	-0.1626	0.0595	0.2221	1004.3594	0.143461	-360.06441	-360.055772	-360.054828	-360.09715	31.766
C         -0.03460        1.44480       -0.00080
N         -0.01400        0.00070        0.00050
C          0.00800       -0.80270       -1.13030
C          0.00220       -2.11800       -0.72240
N         -0.07530       -3.26650       -1.53830
C          0.00600       -2.11770        0.70250
C          0.00200       -0.79890        1.11380
N         -0.05530       -0.21600        2.39970
H          0.95760        1.87320       -0.19450
H         -0.72210        1.80710       -0.77090
H         -0.38050        1.78660        0.97620
H          0.01960       -0.36660       -2.11620
H          0.21880       -3.07750       -2.48870
H          0.49030       -4.02500       -1.17650
H          0.00620       -2.98260        1.34930
H         -0.45070       -0.86950        3.06450
H          0.86100        0.05460        2.74670
