15
gdb 5736	4.16177	2.04784	1.40002	3.3285	69.26	-0.1792	0.0442	0.2234	852.7997	0.122141	-358.840226	-358.833431	-358.832487	-358.871273	25.47
N          0.00700        1.43650       -0.08320
C         -0.02630        0.03690       -0.02840
C         -1.07770       -0.84850       -0.11080
C         -2.49080       -1.39300       -0.27030
C         -1.80560       -2.81250       -0.23910
N         -0.51810       -2.10150       -0.07270
C          0.82440       -1.97810        0.01300
N          1.14120       -0.68840        0.05610
H          0.91560        1.76920        0.21560
H         -0.71510        1.87210        0.47620
H         -3.18250       -1.21010        0.55700
H         -2.99580       -1.15900       -1.21140
H         -2.06660       -3.44920        0.60960
H         -1.86950       -3.38430       -1.16780
H          1.52120       -2.79980        0.05420
