15
gdb 15127	8.80451	0.71283	0.6839	3.5487	73.17	-0.2589	-0.0621	0.1968	1568.3331	0.117629	-362.607415	-362.598932	-362.597988	-362.642529	28.371
O         -0.02440        0.01820       -0.39130
C          0.05060        1.21600       -0.23940
C          1.28060        1.93840       -0.04030
C          2.29590        2.57120        0.12580
C          3.52060        3.33480        0.33010
C          3.32300        4.84010        0.23170
C          4.43060        5.69430       -0.25970
N          3.21870        5.49610       -1.07550
H         -0.85450        1.85700       -0.24410
H          3.93100        3.08130        1.31750
H          4.27480        3.01140       -0.40050
H          2.63920        5.24540        0.97420
H          4.56250        6.69890        0.13110
H          5.35260        5.20380       -0.56340
H          3.40280        4.82860       -1.82130
