10
gdb 125	29.69812	2.46416	2.34273	4.5445	40.22	-0.2859	0.008	0.2939	509.5881	0.078474	-247.198	-247.192237	-247.191293	-247.226866	18.14
C         -0.01300        1.38930        0.01050
O         -0.00650       -0.02400       -0.01110
C          0.65830       -0.56510        1.10060
C          0.63220       -2.02870        1.01680
N          0.62970       -3.18240        0.98110
H          1.00800        1.79980       -0.00840
H         -0.54620        1.71660       -0.88350
H         -0.52950        1.77900        0.90090
H          1.71000       -0.23570        1.14670
H          0.18280       -0.26000        2.04800
