17
gdb 18193	4.28939	1.65134	1.36946	1.9095	73.52	-0.2347	0.0604	0.2952	923.0557	0.143763	-326.680455	-326.673369	-326.672425	-326.711567	28.006
C         -0.00110       -1.22740       -0.05530
C          0.00660       -0.02610       -0.01040
C          0.01290        1.42970        0.03760
C         -0.63090        2.02820        1.32560
C          0.00530        3.42830        1.48420
C          1.38510        3.27750        0.86810
N          2.08100        2.05010        1.31640
C          1.40130        2.07140        0.00770
H         -0.00360       -2.28850       -0.08930
H         -0.52900        1.80910       -0.84050
H         -1.72040        2.05710        1.25800
H         -0.36130        1.39810        2.17380
H         -0.55580        4.18520        0.92260
H          0.03680        3.74780        2.53040
H          1.97400        4.15650        0.62540
H          3.08160        2.15550        1.17130
H          1.99280        2.00670       -0.89940
