17
gdb 19957	3.90092	1.50506	1.15579	3.4814	69.42	-0.2399	0.0371	0.277	1027.5605	0.14292	-363.869726	-363.861991	-363.861047	-363.90251	28.239
O          0.30180        0.06810       -0.13570
C          0.09380        1.24740       -0.04110
N         -1.05800        1.99670       -0.02150
C         -0.40430        3.29480        0.15690
C          0.96060        2.53360        0.11810
C          1.84600        2.60340        1.33070
C          3.27390        2.12830        1.24810
C          2.98090        3.59940        1.39750
H         -2.02940        1.73060       -0.08260
H         -0.57490        4.00250       -0.66060
H         -0.62330        3.78010        1.11380
H          1.53270        2.74220       -0.79130
H          1.33270        2.40190        2.26780
H          3.68340        1.59280        2.09680
H          3.63190        1.77350        0.28770
H          3.14420        4.24100        0.53760
H          3.19010        4.07400        2.34970
