11
gdb 21547	3.74454	1.97574	1.29479	4.3073	64.97	-0.2262	-0.0579	0.1683	846.7869	0.071603	-393.52231	-393.515427	-393.514483	-393.553279	25.44
N          0.07920        1.38980        0.16470
C         -0.01190        0.02390        0.04760
C         -1.10190       -0.81090        0.01070
O         -0.62120       -2.08200       -0.04090
N          0.76340       -1.99710       -0.03800
N          1.10290       -0.77520        0.01300
C         -2.47810       -0.56450        0.01370
C         -3.65690       -0.31350        0.01210
H          0.95860        1.76730       -0.15780
H         -0.72060        1.90290       -0.17560
H         -4.69810       -0.10320        0.01820
