17
gdb 2699	14.94312	0.85616	0.82644	1.4662	67.59	-0.2551	0.0568	0.3119	1353.7607	0.145784	-309.675176	-309.666397	-309.665453	-309.708791	29.958
C         -0.02450        1.39340        0.02510
O         -0.00090       -0.01290        0.00950
C          0.64490       -0.54040       -1.12630
C          0.61140       -2.06010       -1.03790
C          1.29950       -2.72360       -2.24630
C          1.27890       -4.17980       -2.18170
C          1.25040       -5.37910       -2.10830
H          0.99120        1.82050        0.03070
H         -0.56210        1.80410       -0.84480
H         -0.54170        1.70240        0.93670
H          0.14340       -0.19700       -2.04930
H          1.68830       -0.18030       -1.17870
H          1.10270       -2.37700       -0.11260
H         -0.42920       -2.39350       -0.97570
H          0.81230       -2.39510       -3.17430
H          2.34000       -2.37860       -2.31350
H          1.23000       -6.43890       -2.05310
