20
gdb 15987	3.61634	1.49098	1.20921	1.6506	75.38	-0.2388	0.0763	0.3151	1076.8973	0.176494	-348.975551	-348.967166	-348.966222	-349.008537	31.27
C          0.22450        1.54110        0.11540
C         -0.01740        0.03140        0.02160
C          0.49240       -0.55030       -1.28620
O          1.93150       -0.40290       -1.43350
C          2.12010       -1.82250       -1.61590
C          0.62920       -2.06920       -1.42190
C         -0.04200       -3.15030       -0.63210
C         -0.26300       -3.04110       -2.12540
H          1.29070        1.76100        0.01230
H         -0.30750        2.07820       -0.67780
H         -0.11690        1.93820        1.07590
H          0.47830       -0.48410        0.85250
H         -1.09090       -0.18670        0.10480
H         -0.02440       -0.07690       -2.13580
H          2.51530       -2.05850       -2.61350
H          2.78840       -2.25010       -0.85670
H          0.57200       -3.96590       -0.26260
H         -0.85890       -2.87580        0.02740
H         -1.22900       -2.68820       -2.47380
H          0.19690       -3.78460       -2.76920
