20
gdb 18399	3.1426	2.07737	1.41391	1.2302	74.28	-0.2424	0.0858	0.3282	925.7591	0.180173	-348.997126	-348.990106	-348.989162	-349.027958	28.541
C         -0.04440        1.53690        0.06270
C          1.27700        0.81150        0.01500
C          2.21960        0.76200        1.20660
C          2.71580       -0.66320        1.50970
C          1.68610       -1.55490        2.21860
O          0.52130       -1.87520        1.48010
C         -0.36420       -0.78570        1.26720
C         -0.01070        0.02520        0.03800
H         -0.31870        2.01790        0.99750
H         -0.38970        2.06280       -0.82070
H          1.78690        0.82120       -0.94510
H          3.07540        1.41970        1.01310
H          1.72920        1.16910        2.10020
H          3.03690       -1.15080        0.58100
H          3.59720       -0.61560        2.16330
H          2.14750       -2.51850        2.46060
H          1.39940       -1.07850        3.17350
H         -1.36170       -1.22430        1.15170
H         -0.39360       -0.14430        2.16190
H         -0.29200       -0.44950       -0.89770
