13
gdb 20475	6.48834	1.43065	1.26955	1.642	59.55	-0.2589	-0.0103	0.2487	905.689	0.098024	-394.756512	-394.750152	-394.749208	-394.787741	22.811
C          0.86420        1.03070       -0.13560
O         -0.05530        0.20870       -0.85020
C         -0.43510        0.65860        0.45400
C         -0.55050       -0.38700        1.48770
N         -1.26810       -0.20490        2.59940
N         -1.11370       -1.35170        3.24770
N         -0.36830       -2.27540        2.65750
C          0.00500       -1.68090        1.52510
H          1.76710        0.53220        0.21330
H          1.00370        2.03560       -0.53180
H         -1.22180        1.41080        0.47540
H         -1.55440       -1.51740        4.13810
H          0.61970       -2.18750        0.79960
