15
gdb 15536	3.74192	1.96146	1.31409	2.0778	65.2	-0.2201	-0.0099	0.2102	884.7578	0.121208	-396.031822	-396.024464	-396.02352	-396.063675	26.807
N         -0.02740        1.34800        0.17680
C         -0.07770       -0.00190        0.06290
N         -1.13030       -0.72720        0.02120
C         -0.71520       -2.12550       -0.07600
C          0.83240       -2.14820        0.08840
N          1.15390       -0.71630        0.02940
C          2.40690       -0.20110       -0.09470
O          2.68870        0.98190       -0.17310
H          0.85940        1.78880       -0.02690
H         -0.88590        1.83650       -0.01420
H         -1.20390       -2.72860        0.69620
H         -1.01940       -2.54310       -1.04440
H          1.13840       -2.56920        1.05190
H          1.34340       -2.69640       -0.70710
H          3.17780       -0.99270       -0.12300
