14
gdb 3087	3.71811	2.33391	1.99658	4.0978	58.47	-0.2312	0.0328	0.2639	700.5834	0.114855	-320.742924	-320.73563	-320.734686	-320.774012	26.523
N          0.05200        1.44670        0.12770
C          0.00420        0.02930       -0.00320
C         -1.32780       -0.65870        0.03360
N         -2.48550        0.18810        0.06500
C         -0.53040       -0.69100       -1.27220
C         -0.95410        0.09360       -2.38970
N         -1.27080        0.73060       -3.30320
H          0.75590        1.85270       -0.48000
H         -0.84990        1.83970       -0.12610
H          0.83290       -0.49040        0.46910
H         -1.36610       -1.62020        0.54800
H         -3.25410       -0.21060       -0.46280
H         -2.79870        0.33520        1.01840
H         -0.07310       -1.63890       -1.53560
