16
gdb 16978	4.00455	2.32752	2.18492	1.823	69.09	-0.2249	0.0056	0.2305	705.7477	0.131683	-346.468195	-346.46248	-346.461536	-346.497488	24.45
C          0.05930        1.58360       -0.15410
O          1.51360        1.50400        0.12770
C          1.19860        0.32100        0.93460
C          1.34120       -1.26220        0.92890
C         -0.26840       -1.15440        1.11830
C         -0.02300        0.05740        0.11180
C          0.55490       -0.71820       -1.08860
C          1.42210       -1.57720       -0.55640
H         -0.44080        2.22760        0.57840
H         -0.12770        1.93170       -1.17390
H          1.01640        0.66690        1.96010
H          1.95940       -1.81270        1.63870
H         -0.83770       -2.00820        0.74620
H         -0.58460       -0.87050        2.12530
H          0.26160       -0.55860       -2.11700
H          2.04970       -2.32390       -1.02030
