12
gdb 4281	4.04719	2.03472	1.35594	8.9868	58.96	-0.2391	-0.0278	0.2113	820.7026	0.086555	-410.903012	-410.896395	-410.89545	-410.934076	24.472
N          0.03180        1.36790        0.13090
C         -0.01680        0.00020        0.03310
N         -1.14090       -0.62680        0.00580
C         -1.14430       -2.03420       -0.00400
O         -2.17360       -2.65940        0.02230
N          0.11040       -2.72690       -0.06020
C          1.17580       -2.02930       -0.03610
N          1.19940       -0.65190        0.01480
H          0.79410        1.84830       -0.32340
H         -0.87250        1.79680       -0.00540
H          2.15710       -2.50240       -0.06000
H          2.06780       -0.15570        0.13650
