18
gdb 8942	2.92058	1.54171	1.16941	3.189	65.38	-0.2595	-0.0294	0.2302	1067.622	0.15009	-422.074045	-422.064487	-422.063543	-422.108573	33.239
C         -0.04020        1.43630       -0.07550
O         -0.03720        0.04940        0.17610
C         -1.28730       -0.60180       -0.00270
C         -1.69790       -0.72350       -1.46920
C         -1.13330       -1.98460        0.65950
O         -0.32610       -2.85350       -0.08160
C         -0.56990       -1.80660        2.05900
O          0.41750       -2.39360        2.42490
H          0.93690        1.81740        0.23090
H         -0.18780        1.67230       -1.13820
H         -0.82030        1.95290        0.50600
H         -2.06640       -0.05100        0.55580
H         -2.65540       -1.24740       -1.55300
H         -1.81590        0.25930       -1.93290
H         -0.94160       -1.29170       -2.01410
H         -2.14800       -2.40910        0.76890
H          0.43220       -3.05280        0.49010
H         -1.12390       -1.11660        2.72750
