18
gdb 14345	4.74416	1.54161	1.31157	2.0477	74.69	-0.2316	0.0141	0.2457	960.2136	0.155245	-347.785307	-347.778245	-347.777301	-347.81644	28.117
O          0.18070        1.41150        0.17300
C          0.07800        0.00310        0.03060
C         -1.40040       -0.52020        0.00740
C         -1.34090       -1.74960       -0.91740
C         -2.07950       -1.94760       -2.29010
C         -0.67320       -2.18570       -2.96510
C         -0.10470       -1.51060       -1.73920
C          0.65630       -0.52090       -1.28670
H         -0.22290        1.80690       -0.60830
H          0.61730       -0.38840        0.90290
H         -1.79310       -0.71850        1.00830
H         -2.02100        0.26650       -0.44040
H         -1.32550       -2.69220       -0.35750
H         -2.80620       -2.76040       -2.36160
H         -2.53590       -1.01880       -2.64230
H         -0.43990       -3.25440       -3.01870
H         -0.47550       -1.73300       -3.93960
H          1.51430       -0.05380       -1.75640
