14
gdb 6243	4.47732	1.23937	0.9766	5.2364	68.71	-0.2458	-0.0435	0.2022	1132.3333	0.104885	-378.718797	-378.709985	-378.709041	-378.753316	30.278
C          0.08760        1.49270       -0.15420
C          0.08320        0.01350        0.21080
O          0.08930       -0.39370        1.34330
N          0.07110       -0.80820       -0.92190
C          0.06340       -2.20560       -0.99700
N          0.06700       -2.96240        0.02880
C          0.05120       -2.67710       -2.36140
C          0.04090       -3.09210       -3.49060
H          0.96820        1.74610       -0.75420
H         -0.80180        1.75520       -0.73700
H          0.09940        2.07460        0.76630
H          0.06720       -0.34090       -1.81470
H          0.05980       -3.93660       -0.27020
H          0.03170       -3.47330       -4.48270
