9
gdb 21445	3.38293	2.57368	1.46166	2.2456	49.95	-0.3165	-0.0974	0.2191	732.6491	0.046269	-466.569063	-466.562679	-466.561735	-466.600591	22.069
N         -0.01350        1.23040        0.39240
C         -0.04060        0.03610        0.01100
O          1.10330       -0.61150       -0.43240
N          1.07990       -1.94390       -0.85920
N          0.05090       -2.60490       -0.86320
O         -1.18350       -2.06190       -0.43520
C         -1.30640       -0.76100        0.01140
O         -2.37260       -0.36970        0.35580
H          0.92710        1.62610        0.32840
