10
gdb 249	10.30398	2.31232	1.8886	1.994	42.07	-0.2743	0.0024	0.2767	600.144	0.0727	-338.531538	-338.524995	-338.52405	-338.562187	21.164
N         -0.11100        1.28790       -0.02310
C          0.09240       -0.04880       -0.00620
O          1.15720       -0.61310       -0.00410
O         -1.13860       -0.67830       -0.00130
C         -1.13720       -2.04720        0.00020
N         -2.24750       -2.63890        0.00930
H          0.68900        1.89220        0.02790
H         -1.03930        1.66690        0.03450
H         -0.13010       -2.46510       -0.00710
H         -2.09740       -3.64660        0.00880
