18
gdb 8940	3.93596	1.16745	0.97405	2.3147	65.26	-0.2617	-0.0365	0.2252	1202.7265	0.150709	-422.085581	-422.076166	-422.075221	-422.119817	33.543
C          0.00840        1.60290        0.05700
C         -0.02270        0.07470       -0.02070
C          0.73340       -0.47710       -1.22920
O          2.11670       -0.13700       -1.21640
C          0.57930       -2.01600       -1.34660
O         -0.76560       -2.40190       -1.34520
C          1.26540       -2.52100       -2.60150
O          0.66550       -3.18660       -3.41350
H          1.03630        1.97660        0.06860
H         -0.49580        2.04940       -0.80680
H         -0.49620        1.95990        0.95930
H          0.41700       -0.36110        0.89010
H         -1.05200       -0.29250       -0.06840
H          0.33210       -0.02290       -2.14400
H          2.45770       -0.32690       -0.33480
H          1.11780       -2.46190       -0.48690
H         -0.88370       -2.92410       -2.15620
H          2.32490       -2.23980       -2.73310
