19
gdb 17317	2.61212	2.42745	1.65218	1.7214	75.05	-0.2145	0.0699	0.2844	879.7138	0.165228	-327.834618	-327.826913	-327.825969	-327.866013	30.264
C         -0.01950        1.60160       -0.02770
C          0.15450        0.08520        0.02470
C          1.29310       -0.85770       -0.33880
N          2.72140       -0.57810        0.07500
C          2.82890        0.74680        0.70930
C          2.20670       -0.36160        1.47190
C          0.76890       -0.78800        1.08560
C          0.02330       -1.79170        1.91720
H          0.45310        2.04530       -0.91040
H         -1.08640        1.84120       -0.08030
H          0.37470        2.10110        0.86010
H         -0.74710       -0.41410       -0.33390
H          1.16600       -1.62100       -1.09790
H          3.85800        0.97940        0.97380
H          2.27200        1.58720        0.32610
H          2.71390       -0.82600        2.31320
H         -0.36770       -1.33760        2.83660
H         -0.82680       -2.20450        1.36510
H          0.67040       -2.62660        2.21080
