16
gdb 18301	3.17168	2.2087	1.93965	2.521	59.44	-0.2351	0.0745	0.3096	763.64	0.131997	-420.846854	-420.840032	-420.839088	-420.877712	26.242
O          0.12290        1.35530        0.14780
C          0.00900       -0.02490        0.05210
C         -1.35360       -0.68970        0.01020
C         -2.62790        0.13560        0.00990
O         -2.67390        1.08880       -1.05560
C         -2.23120        0.54040       -2.25910
O         -0.83930        0.29350       -2.22920
C         -0.48130       -0.63570       -1.23640
H         -0.21060        1.71910       -0.68450
H          0.80040       -0.53740        0.59090
H         -1.44520       -1.65650        0.49600
H         -3.49600       -0.53660       -0.06990
H         -2.72530        0.71760        0.93030
H         -2.77220       -0.39370       -2.48860
H         -2.39760        1.28360       -3.04070
H         -0.02830       -1.53810       -1.63810
