14
gdb 13755	4.25498	1.50132	1.26078	6.4559	60.67	-0.2486	-0.006	0.2426	937.414	0.10644	-415.881542	-415.873487	-415.872543	-415.914515	28.092
N          0.19450        1.07060        0.24710
C         -0.07610       -0.11430       -0.36410
O          0.74110       -0.72830       -1.02310
C         -1.48700       -0.61540       -0.16230
C         -2.19090       -1.16870       -1.38440
N         -1.74980       -2.02700       -0.32550
C         -0.79110       -3.03270       -0.47840
O         -0.80490       -3.83600       -1.37250
H          1.09940        1.48710        0.09950
H         -0.50440        1.59520        0.74290
H         -2.08030       -0.11800        0.60280
H         -3.26320       -1.02750       -1.48540
H         -1.61450       -1.19140       -2.30530
H         -0.09170       -3.06630        0.37480
