15
gdb 9127	7.0977	0.75034	0.68444	5.2146	70.67	-0.2532	-0.016	0.2372	1588.2008	0.116586	-399.785589	-399.775824	-399.77488	-399.822216	31.552
C          0.05390        1.42400       -0.04310
N         -0.08590       -0.01750       -0.08570
C         -1.26880       -0.64750        0.17960
O         -2.30060       -0.07000        0.47200
C         -1.18430       -2.09790        0.07980
C         -1.16490       -3.30070        0.00990
C         -1.11310       -4.75390       -0.08160
O         -2.38920       -5.29930        0.21100
H          0.79150        1.73070        0.70700
H          0.35670        1.82370       -1.01740
H         -0.91890        1.83740        0.22450
H          0.71010       -0.58820       -0.31790
H         -0.77690       -5.02970       -1.09500
H         -0.34450       -5.12210        0.61810
H         -2.31720       -6.25680        0.14120
