21
gdb 13450	3.46738	1.10805	1.00939	0.6038	75.42	-0.213	0.0769	0.2899	1262.151	0.186992	-366.223587	-366.213739	-366.212794	-366.258363	35.136
C         -0.02500        1.55150        0.66510
C          0.05630        0.08740        0.28540
C          0.31680       -0.38660       -1.11100
C          0.51160        0.55180       -2.28480
C          1.26210       -0.11180       -3.43650
O          1.32600        0.82200       -4.50370
N          1.30770       -0.59890       -0.04720
C          2.56800        0.12670       -0.03970
H          0.56310        2.20490        0.01870
H         -1.06600        1.88850        0.61450
H          0.31730        1.70250        1.69500
H         -0.60220       -0.53420        0.89370
H         -0.16960       -1.31880       -1.40570
H         -0.47110        0.86830       -2.65660
H          1.04420        1.46440       -2.00660
H          2.26910       -0.41070       -3.10510
H          0.73450       -1.03110       -3.73950
H          1.80220        0.41400       -5.23260
H          2.53780        1.15600       -0.42380
H          2.94140        0.16720        0.98910
H          3.29910       -0.43100       -0.63490
