14
gdb 3695	7.43277	1.99147	1.59071	3.1251	60.16	-0.2023	0.0433	0.2457	759.8392	0.115209	-320.782523	-320.775492	-320.774547	-320.813287	25.486
C          0.01500        1.47870       -0.04890
C         -0.00890       -0.01450        0.04520
N         -0.08470       -0.75510       -1.05420
N         -0.07580       -2.03830       -0.59700
C          0.00580       -2.11870        0.75410
N         -0.04280       -3.35020        1.41380
C          0.05420       -0.81740        1.21410
H          0.93690        1.89390        0.37380
H         -0.05220        1.78440       -1.09510
H         -0.82200        1.92730        0.49780
H         -0.20630       -2.79330       -1.24750
H          0.61790       -4.02670        1.04850
H          0.11110       -3.24480        2.40760
H          0.13990       -0.49590        2.24000
