17
gdb 8058	3.39838	1.85224	1.54057	3.7599	69.7	-0.2374	-0.0353	0.2021	881.8333	0.141652	-363.788925	-363.781509	-363.780565	-363.820556	27.968
C         -0.03300        1.49230        0.10350
C          0.03410       -0.01260        0.04750
C          0.54520       -0.93640       -1.08090
N          0.08220       -1.96300       -0.02940
C          0.76480       -1.01180        0.97810
C         -1.14580       -1.05510        0.10780
C         -2.02430       -1.16510        1.32210
O         -1.79720       -1.80430        2.31880
H          0.96780        1.92520       -0.00080
H         -0.65710        1.89090       -0.70350
H         -0.44850        1.83630        1.05650
H         -0.01950       -0.97750       -2.01700
H          1.62310       -0.96770       -1.26140
H          1.85600       -1.03930        0.91430
H          0.41820       -1.14090        2.00150
H         -1.78780       -1.06850       -0.78300
H         -2.96390       -0.57030        1.22800
