16
gdb 12255	3.13773	1.57262	1.27568	1.5225	61.01	-0.2509	-0.0286	0.2223	970.0381	0.128559	-420.868597	-420.860131	-420.859187	-420.901765	30.243
O          0.06470        1.21260       -0.49570
C          0.00900       -0.17470       -0.20000
C         -1.41370       -0.49540        0.22120
C         -2.43800       -0.38990       -0.95740
C         -2.26180       -1.90310       -1.11340
O         -2.23960       -2.66880       -2.03720
C         -1.69680       -2.04100        0.30190
O         -0.65340       -2.95200        0.49590
H          0.96500        1.42840       -0.75590
H          0.28570       -0.78120       -1.07830
H          0.70030       -0.44880        0.60940
H         -1.67560        0.06810        1.11780
H         -3.44460       -0.11690       -0.62850
H         -2.15660        0.22760       -1.81150
H         -2.50410       -2.21960        1.02690
H         -0.57140       -3.45800       -0.32280
