14
gdb 21194	6.91471	1.32029	1.12152	4.7579	59.84	-0.2052	0.0439	0.2492	1007.2469	0.109238	-412.064901	-412.057281	-412.056337	-412.096765	27.446
C         -0.00320        1.36780        0.17650
N         -0.03100       -0.05040       -0.12740
C         -1.19210       -0.76420       -0.01500
N         -1.27430       -2.08640        0.06180
C         -2.62260       -2.28700        0.09960
O         -3.14800       -3.51830        0.17840
N         -3.38750       -1.21900        0.05990
N         -2.42720       -0.22320       -0.00650
H          1.01930        1.73230        0.06550
H         -0.62260        1.92160       -0.53870
H         -0.35120        1.60430        1.19310
H          0.77800       -0.58750        0.14340
H         -2.40300       -4.13040        0.18610
H         -2.71420        0.73610       -0.07920
