13
gdb 12619	3.68512	2.08431	1.34266	5.7581	62.74	-0.241	-0.093	0.148	850.727	0.095573	-398.649933	-398.642685	-398.641741	-398.681675	25.584
C         -0.01020        1.46900       -0.00610
N          0.01070        0.02110       -0.01270
C          0.05660       -0.79760       -1.13610
C          0.06970       -2.12010       -0.85450
C          0.02900       -2.25220        0.59970
O          0.02430       -3.22080        1.31790
C         -0.01000       -0.76920        1.13320
O         -0.04770       -0.37770        2.26960
H          0.89250        1.88250       -0.46810
H         -0.88970        1.85640       -0.53120
H         -0.05170        1.78340        1.03820
H          0.07770       -0.32660       -2.11120
H          0.10360       -2.92980       -1.56520
