16
gdb 9153	4.89884	0.76685	0.70994	1.3544	66.56	-0.2599	0.0191	0.2789	1547.1564	0.128307	-420.826639	-420.817104	-420.81616	-420.862283	32.713
O          0.36400        0.78750        0.81400
C         -0.08690        0.13740       -0.36480
C         -1.41320       -0.46530       -0.23220
C         -2.51930       -0.93140       -0.11760
C         -3.84710       -1.49830        0.08720
O         -3.80300       -2.84040        0.59170
C         -4.70140       -0.63730        1.03840
O         -5.94850       -1.24980        1.25670
H         -0.30560        1.43290        1.06380
H         -0.08760        0.82040       -1.22920
H          0.65550       -0.63930       -0.57920
H         -4.37930       -1.57730       -0.86800
H         -3.10560       -2.87480        1.25690
H         -4.14080       -0.48850        1.97720
H         -4.88160        0.34710        0.59530
H         -5.75220       -2.18270        1.41610
