13
gdb 6640	8.56442	0.77939	0.7207	6.8055	72.88	-0.2715	-0.042	0.2295	1462.8207	0.092745	-361.470717	-361.461993	-361.461049	-361.506098	28.791
C         -0.10750        1.53790        0.01220
C          0.11350        0.03870        0.00140
O          1.20250       -0.46980       -0.01190
C         -1.18600       -0.80320        0.00880
C         -0.96550       -2.23420       -0.00090
C         -0.78440       -3.42730       -0.00900
C         -0.58550       -4.77800       -0.01810
N         -0.42270       -5.92810       -0.02580
H          0.85540        2.04880        0.00580
H         -0.69400        1.84490       -0.86100
H         -0.67690        1.83470        0.90010
H         -1.77620       -0.51490        0.88960
H         -1.79210       -0.50550       -0.85780
