15
gdb 7249	3.07113	1.48362	1.16697	2.5428	61.84	-0.2808	-0.0529	0.2279	1018.2541	0.116287	-399.829452	-399.820673	-399.819729	-399.863402	30.552
C         -1.24460        1.33540        0.71870
C         -0.39480        0.29170       -0.02760
O          0.90990        0.26220        0.48270
C         -1.01510       -1.09670        0.06400
O         -0.41400       -2.00800        0.58170
C         -2.44160       -1.33840       -0.46290
C         -2.81990       -0.54660       -1.62730
N         -3.11030        0.08350       -2.55120
H         -0.72120        2.29320        0.68070
H         -2.22860        1.46600        0.25980
H         -1.36400        1.05340        1.76910
H         -0.37570        0.56260       -1.09630
H          1.05900       -0.64390        0.79300
H         -2.53510       -2.40560       -0.68070
H         -3.13600       -1.11660        0.35810
