15
gdb 12174	3.23695	1.64717	1.23869	3.8327	63.09	-0.2548	-0.0404	0.2144	966.8812	0.117403	-399.830907	-399.822839	-399.821895	-399.863839	28.288
C         -0.09750        1.57360        0.03200
C          0.00220        0.05650       -0.00800
C          0.77350       -0.61580       -1.20670
N          1.75240       -1.09410       -0.23930
C          1.09730       -0.60650        0.87210
O          1.31480       -0.67910        2.04890
C          0.00490       -1.68370       -1.94430
O          0.18110       -2.86560       -1.79850
H          0.87070        2.03870       -0.17840
H         -0.82370        1.94720       -0.69650
H         -0.41760        1.89770        1.02660
H         -0.97120       -0.41050        0.17330
H          1.16540        0.11230       -1.93030
H          2.39590       -1.86810       -0.32250
H         -0.75870       -1.28840       -2.65240
