18
gdb 14474	2.82003	2.30036	1.93306	1.2781	71.27	-0.2302	0.0688	0.299	812.5657	0.153792	-347.753118	-347.745842	-347.744897	-347.783967	29.221
C         -0.11150        1.53450        0.02130
C         -0.09290        0.02970        0.02830
C          0.32640       -0.79030       -1.22920
C         -0.56700       -1.90810       -0.70130
C         -0.42830       -1.89090        0.85270
C          0.54950       -0.77330        1.20010
C         -1.36110       -0.95520        0.15480
O         -2.69980       -0.75050        0.36910
H          0.90480        1.93940       -0.05940
H         -0.68940        1.92600       -0.82380
H         -0.55520        1.93110        0.94090
H         -0.07180       -0.35440       -2.15130
H          1.39790       -0.98740       -1.35270
H         -0.90690       -2.80540       -1.20280
H         -0.68830       -2.77150        1.42580
H          1.62620       -0.97060        1.13410
H          0.31660       -0.32680        2.17150
H         -3.10580       -0.47680       -0.46120
