14
gdb 19226	3.59596	1.97963	1.41947	5.4011	65.73	-0.244	-0.0184	0.2255	854.3125	0.107646	-378.707803	-378.700873	-378.699929	-378.739276	25.332
N          0.02990        1.24260        0.19380
C         -0.05190       -0.01410        0.04080
N         -1.24710       -0.66480       -0.21860
C         -1.52160       -2.10300       -0.14560
C         -2.12940       -2.44950        1.17530
C         -2.98950       -1.80240        0.08780
C         -2.62230       -0.32870       -0.02490
O         -3.20030        0.71200        0.00300
H          0.99850        1.51140        0.35720
H          0.78520       -0.72520        0.06720
H         -1.08170       -2.79200       -0.85360
H         -2.34740       -3.49900        1.35140
H         -1.85360       -1.88370        2.05970
H         -3.86460       -2.27880       -0.32810
