20
gdb 13812	2.81481	1.62716	1.14029	3.1931	71.28	-0.2451	0.0619	0.307	1088.5731	0.176658	-386.126363	-386.117502	-386.116558	-386.159383	33.629
C          0.08530        1.33840       -0.17410
C          0.11130       -0.18550       -0.07390
O          0.79490       -0.75450       -1.20930
C          0.71030       -0.66490        1.23230
C         -0.16420       -1.05010        2.40380
C          0.61470       -2.11180        1.66980
C         -0.08500       -3.14480        0.80750
O          0.67830       -3.52260       -0.31930
H          1.09950        1.74930       -0.09540
H         -0.33920        1.65360       -1.13080
H         -0.51080        1.76860        0.63640
H         -0.91040       -0.56560       -0.17180
H          1.71540       -0.46990       -1.16890
H          1.64290       -0.16250        1.48630
H          0.14430       -0.76090        3.40220
H         -1.23940       -1.02700        2.25010
H          1.50000       -2.49360        2.17110
H         -0.24920       -4.05700        1.39260
H         -1.08350       -2.77670        0.51750
H          0.81230       -2.71160       -0.83440
