16
gdb 7262	3.52338	1.30863	1.06223	1.54	62.67	-0.2653	-0.0571	0.2083	1090.783	0.126803	-420.902648	-420.893559	-420.892615	-420.937621	31.225
C          0.21800        1.55280        0.39230
C         -0.04770        0.09910       -0.04030
O          0.48070       -0.14570       -1.31440
C          0.54520       -0.88140        0.96660
O          1.44820       -1.62100        0.63710
C          0.00920       -0.87590        2.39110
C          1.06470       -0.32250        3.34470
O          0.87550        0.60240        4.08670
H          1.29500        1.74000        0.43820
H         -0.21230        2.22340       -0.35490
H         -0.22330        1.78650        1.36560
H         -1.13810       -0.06930       -0.05120
H          1.16530       -0.82170       -1.18850
H         -0.91270       -0.30330        2.49990
H         -0.16520       -1.92240        2.66890
H          2.04020       -0.84930        3.28950
