22
gdb 9427	5.8729	0.75509	0.7061	2.1726	76.27	-0.2495	0.0763	0.3259	1654.8676	0.197417	-387.334319	-387.323633	-387.322689	-387.370634	36.907
C         -0.08820        1.49540        0.01490
C         -0.03530       -0.02310        0.01060
O         -1.35660       -0.52030        0.01380
C         -1.42630       -1.92910        0.00990
C         -2.89420       -2.35240       -0.03230
C         -3.59290       -1.85320       -1.30160
C         -3.00620       -3.86980        0.11560
O         -4.38240       -4.20560        0.21690
H          0.92310        1.91310        0.01230
H         -0.61850        1.86280       -0.86830
H         -0.61220        1.85820        0.90370
H          0.50710       -0.38920       -0.87810
H          0.51320       -0.39340        0.89400
H         -0.88630       -2.33540       -0.86500
H         -0.93300       -2.33630        0.91020
H         -3.38750       -1.90530        0.84060
H         -3.12210       -2.28130       -2.19580
H         -4.64420       -2.14810       -1.30020
H         -3.52490       -0.76570       -1.37330
H         -2.54190       -4.36180       -0.75610
H         -2.45460       -4.19940        1.01130
H         -4.45680       -5.16350        0.24560
