12
gdb 20509	9.50798	1.0244	0.93014	1.4887	67.7	-0.2597	-0.0421	0.2176	1180.2129	0.083748	-377.497399	-377.49011	-377.489166	-377.531871	24.26
C         -0.04360        1.45270        0.01060
C         -0.00570        0.00100        0.00260
C          0.02540       -1.20300       -0.00400
C          0.05270       -2.61690       -0.01170
N          1.17840       -3.30080       -0.02190
O          0.74900       -4.62830       -0.02640
C         -0.58520       -4.59270       -0.01850
N         -1.09080       -3.40430       -0.00920
H          0.96780        1.87180        0.00300
H         -0.57520        1.83570       -0.86720
H         -0.55800        1.82640        0.90250
H         -1.10300       -5.54070       -0.02050
