16
gdb 12202	3.97218	1.49187	1.27704	4.6927	65.64	-0.2592	0.0123	0.2715	971.4052	0.130465	-379.908175	-379.900018	-379.899074	-379.94095	29.592
C          0.12420        1.57530       -0.03830
C          0.10320        0.06290        0.06090
N          1.09370       -0.65360       -0.78470
C          1.32740       -1.65950        0.27090
C          2.72030       -2.06550        0.44360
N          3.82630       -2.36570        0.59330
C          0.73620       -0.63430        1.30890
O          1.66850        0.10040        2.04100
H          1.11960        1.97200        0.17570
H         -0.15900        1.89580       -1.04620
H         -0.58320        2.01750        0.67020
H         -0.92340       -0.31030       -0.07870
H          0.76820       -1.01520       -1.67470
H          0.69900       -2.55900        0.20700
H          0.03760       -1.05640        2.03160
H          2.37550        0.38870        1.45150
