13
gdb 6621	10.65883	0.64103	0.60696	4.3981	84.8	-0.2435	-0.0486	0.1949	1752.0094	0.093207	-361.453549	-361.444026	-361.443082	-361.490803	30.437
C         -0.01380        1.47730        0.01010
C         -0.00650        0.02690        0.00230
C          0.00220       -1.18380       -0.00430
C          0.01370       -2.54080       -0.01170
C          0.01500       -3.75320       -0.01820
C          0.11260       -5.20430       -0.02700
N         -1.09530       -5.83900       -0.01890
O          1.17920       -5.78870       -0.04020
H          1.00590        1.87800        0.00240
H         -0.53700        1.87250       -0.86770
H         -0.51980        1.86300        0.90220
H         -1.96120       -5.32950       -0.00790
H         -1.10620       -6.84570       -0.02420
