20
gdb 6937	3.88821	1.13904	1.07841	0.8089	72.52	-0.2338	0.0799	0.3137	1212.6273	0.173875	-386.119508	-386.109929	-386.108985	-386.153784	34.968
C         -0.15320        1.42220        0.02500
C         -0.30580       -0.04310       -0.34380
O         -1.27500       -0.62280        0.52060
C         -1.47590       -1.97860        0.28760
C         -2.73630       -2.58200        0.84350
C         -2.54920       -2.44770       -0.65950
C         -3.38810       -1.45540       -1.42910
O         -2.20040       -3.61130       -1.36610
H          0.59580        1.89950       -0.61380
H         -1.10250        1.95130       -0.09910
H          0.16170        1.52470        1.06730
H         -0.61800       -0.15330       -1.39310
H          0.65370       -0.57360       -0.23360
H         -0.57380       -2.59150        0.31610
H         -2.66780       -3.57200        1.28050
H         -3.42960       -1.90240        1.32760
H         -3.47780       -0.51600       -0.87860
H         -2.93360       -1.24950       -2.40350
H         -4.39810       -1.84590       -1.60450
H         -2.99450       -4.15030       -1.45730
