16
gdb 6012	2.44281	1.95265	1.54437	1.4714	61.87	-0.2571	-0.0599	0.1971	901.4576	0.125996	-420.910305	-420.901208	-420.900264	-420.943793	32.334
C         -0.80710        0.35640        0.68770
C          0.35640        0.15180       -0.24460
O          1.44230        0.66480       -0.08020
C          0.16940       -0.74660       -1.49420
C         -1.04630       -0.29540       -2.32520
O          1.34060       -0.70720       -2.26080
C         -0.04220       -2.19780       -1.01580
O         -1.04170       -2.61150       -0.48970
H         -0.45170        0.76410        1.63490
H         -1.50420        1.07180        0.23610
H         -1.35610       -0.57630        0.83800
H         -0.97870        0.77170       -2.55310
H         -1.04870       -0.84590       -3.26920
H         -1.97850       -0.50300       -1.79610
H          1.96140       -0.15660       -1.75230
H          0.84250       -2.83680       -1.22250
