14
gdb 2927	6.64211	1.94819	1.55007	3.1656	54.45	-0.2556	0.0202	0.2758	765.9013	0.114461	-361.725962	-361.719085	-361.718141	-361.75736	23.601
O          0.14480        1.34490        0.26080
C          0.04360       -0.04140        0.07390
C         -1.38680       -0.47920       -0.01980
N         -2.37150        0.31780        0.06200
C         -3.58560       -0.50010       -0.07710
C         -3.05470       -1.94820       -0.25680
O         -1.61300       -1.80000       -0.20140
H         -0.76410        1.67830        0.28260
H          0.56350       -0.35560       -0.84460
H          0.52030       -0.58800        0.90250
H         -4.21550       -0.39200        0.81170
H         -4.17200       -0.15920       -0.93650
H         -3.35660       -2.62930        0.54310
H         -3.31300       -2.39460       -1.22050
