18
gdb 7518	4.82234	1.17804	1.10422	4.2978	72.63	-0.2575	0.0242	0.2817	1121.9351	0.152678	-343.984797	-343.97588	-343.974936	-344.018284	32.219
C         -0.00500        1.42640       -0.30830
C          0.05840       -0.03130        0.07980
N          1.38150       -0.68260        0.08070
C          0.64760       -0.55290        1.34890
C          1.27850        0.34540        2.39230
C         -0.01180       -1.80980        1.92400
C          0.94810       -2.71870        2.55620
N          1.71330       -3.43060        3.04900
H          0.85680        1.98020        0.06820
H         -0.01220        1.52560       -1.39890
H         -0.91720        1.89370        0.07790
H         -0.77120       -0.62130       -0.31230
H          1.33080       -1.63030       -0.28490
H          1.80260        1.17850        1.92370
H          0.52170        0.74600        3.07610
H          2.00850       -0.21500        2.98580
H         -0.76480       -1.53260        2.67200
H         -0.53760       -2.35980        1.13550
