19
gdb 16161	4.32694	1.59745	1.36561	1.5866	76.25	-0.2261	0.0195	0.2455	976.0536	0.166687	-327.915354	-327.907803	-327.906859	-327.946982	29.495
C         -0.39230        1.47190       -0.07850
C          0.15740        0.05070        0.10820
C          0.88290       -0.47360       -1.10830
N          0.09970       -0.90940       -2.30780
C          0.89700       -1.89860       -1.54540
C          2.25390       -2.20680       -2.16840
C          2.96330       -0.86810       -2.10560
C          2.22180        0.06920       -1.51310
H          0.41170        2.18750       -0.27860
H         -1.08950        1.51660       -0.92130
H         -0.92140        1.80870        0.81800
H          0.83760        0.02950        0.96930
H         -0.66730       -0.63190        0.35140
H         -0.87560       -1.01660       -2.02740
H          0.36920       -2.66700       -0.98940
H          2.79180       -2.98090       -1.60500
H          2.15460       -2.57040       -3.19830
H          3.94840       -0.71260       -2.53130
H          2.51410        1.10120       -1.35790
