16
gdb 7737	3.55393	1.78961	1.23829	5.3213	68.76	-0.2579	-0.0395	0.2184	958.3815	0.131312	-383.796884	-383.789545	-383.7886	-383.828479	27.306
C         -0.03370        1.52140        0.04980
C         -0.03500        0.02450       -0.01360
C         -0.16560       -0.66620       -1.15410
C         -0.02610       -2.13580       -1.22480
O          0.11190       -2.74060       -2.25690
O          0.00430       -2.81530       -0.04310
C         -0.44940       -2.13560        1.13280
C          0.15440       -0.74410        1.27020
H          0.89650        1.88740        0.50320
H         -0.13490        1.97120       -0.94050
H         -0.85130        1.88530        0.68460
H         -0.28350       -0.17950       -2.11570
H         -1.54480       -2.06260        1.10000
H         -0.17470       -2.78270        1.96850
H          1.22530       -0.80560        1.50980
H         -0.32170       -0.22400        2.10970
