22
gdb 11353	4.64674	1.15362	1.00461	0.2689	85.43	-0.2244	0.033	0.2573	1270.9779	0.200729	-313.100019	-313.091115	-313.090171	-313.133534	33.355
C          0.19810        1.54100       -0.19950
C         -0.09590        0.05380        0.06620
C          0.62800       -0.49700        1.25950
C          0.08460       -0.97610        2.38080
C          1.10900       -1.42160        3.40120
C          0.78870       -2.75300        4.08950
C          2.41380       -1.44700        2.55980
C          2.14430       -0.53180        1.34280
H          1.26350        1.71110       -0.38440
H         -0.35250        1.89580       -1.07610
H         -0.09440        2.15630        0.65740
H         -1.17470       -0.08780        0.19780
H          0.18750       -0.52190       -0.82690
H         -0.98320       -1.02360        2.57560
H          1.19030       -0.65230        4.18610
H          0.68190       -3.55670        3.35220
H          1.58460       -3.03820        4.78620
H         -0.14530       -2.69360        4.65870
H          3.29580       -1.15030        3.13430
H          2.58640       -2.47200        2.21100
H          2.61000       -0.90270        0.42110
H          2.54570        0.47950        1.49960
