16
gdb 18982	4.2784	2.23744	1.81571	2.1442	63.18	-0.2355	0.0687	0.3042	744.0254	0.132896	-383.671733	-383.66601	-383.665066	-383.701303	23.579
C         -0.00990        1.41660        0.09860
C          1.43010        1.93300        0.02470
C          2.19040        1.13020       -1.02990
C          1.36240        0.35590       -2.10250
O          2.45900       -0.61640       -2.23120
C          2.33210       -0.39300       -0.77900
C          0.79020       -0.53120       -0.94670
O         -0.07200       -0.00430        0.01640
H         -0.50380        1.69490        1.03280
H         -0.58990        1.84790       -0.73230
H          1.41860        2.99960       -0.22500
H          1.93410        1.83590        0.99390
H          3.09550        1.60240       -1.41720
H          0.89930        0.70910       -3.02460
H          3.01740       -0.92510       -0.11820
H          0.44570       -1.52290       -1.24160
