13
gdb 1971	7.00548	1.68055	1.47742	2.8699	50.3	-0.2796	0.0025	0.2821	788.3577	0.10167	-381.612648	-381.606056	-381.605112	-381.643529	23.492
O          0.00530        1.51140        0.01310
C          0.03920        0.14180       -0.32310
C         -1.28330       -0.53420       -0.02300
C         -1.32100       -2.07010        0.03930
C         -1.58940       -1.84330        1.52840
O         -1.77600       -2.49360        2.50320
O         -1.55910       -0.47120        1.42750
H         -0.21490        1.56540        0.95060
H          0.24620        0.08100       -1.39730
H          0.84550       -0.39250        0.20570
H         -2.10420       -0.05730       -0.56330
H         -2.13640       -2.56080       -0.49340
H         -0.38110       -2.58460       -0.17260
