14
gdb 10790	4.8928	1.62195	1.28712	3.8376	59.89	-0.2432	-0.0005	0.2428	892.3801	0.108862	-415.895981	-415.888909	-415.887965	-415.927636	25.802
N         -0.18220        1.34620       -0.03690
C          0.01280        0.09420        0.11420
C         -1.13570       -0.85510       -0.15440
O         -1.16970       -1.98580        0.73310
C         -0.02630       -2.66810        0.95340
O         -0.03530       -3.71980        1.52720
C          1.24680       -2.00780        0.43020
N          1.15510       -0.56100        0.49500
H          0.67480        1.88320        0.11240
H         -2.07600       -0.32570       -0.01800
H         -1.08510       -1.21550       -1.19060
H          2.06850       -2.35940        1.05470
H          1.42910       -2.38130       -0.59160
H          2.00670       -0.03070        0.59000
