16
gdb 15375	3.30912	1.34327	1.05097	3.8707	62.15	-0.2695	-0.0066	0.2629	1098.3887	0.129062	-420.872577	-420.864182	-420.863237	-420.906495	29.286
O          0.41250        0.57740        0.65460
C         -0.09650        0.07070       -0.56420
C         -1.50360       -0.47950       -0.41600
C         -1.91630       -1.70740       -1.20200
C         -1.69240       -1.78940        0.28380
O         -0.50650       -2.38950        0.78200
C         -0.45540       -3.74220        0.77580
O          0.47820       -4.34680        1.20580
H          0.52890       -0.17930        1.24050
H         -0.10380        0.90960       -1.26750
H          0.56140       -0.70290       -0.98420
H         -2.26500        0.26860       -0.21810
H         -2.93150       -1.79140       -1.57310
H         -1.16160       -2.15490       -1.84090
H         -2.54290       -1.91910        0.94620
H         -1.36050       -4.19870        0.33470
