17
gdb 14114	3.86315	1.75066	1.38739	3.3484	69.16	-0.2402	0.026	0.2662	914.0193	0.143184	-363.873877	-363.866266	-363.865322	-363.905763	29.066
N          0.08170        1.17770       -0.50310
C          0.01070       -0.01170        0.17560
O          0.95470       -0.45870        0.80440
C         -1.28230       -0.73600        0.05310
C         -1.71830       -1.65270        1.17440
C         -1.43440       -2.26050       -0.15450
C         -2.60020       -2.02110       -1.12080
C         -2.45320       -0.47730       -0.90860
H          0.89680        1.74590       -0.33550
H         -0.75000        1.63770       -0.83130
H         -0.95320       -1.80250        1.92750
H         -2.73880       -1.58530        1.54570
H         -0.62700       -2.96850       -0.29230
H         -2.37840       -2.31790       -2.14760
H         -3.55620       -2.46600       -0.82680
H         -3.31580        0.04870       -0.48560
H         -2.15110        0.02760       -1.82970
