14
gdb 16048	3.70431	1.77878	1.49781	1.6502	65.28	-0.2372	0.0049	0.2422	853.5772	0.105736	-382.450103	-382.442916	-382.441972	-382.481245	27.546
O         -0.02320        1.39610        0.04460
C         -0.06140        0.00980        0.05320
C         -1.34790       -0.78790        0.07570
C         -2.36840       -0.07690       -0.79610
O         -1.41630        0.04650       -1.89650
C         -0.45210       -0.75670       -1.18080
C          0.30520       -1.73160       -1.87790
C          0.96180       -2.55550       -2.45920
H         -0.37440        1.66990       -0.81460
H          0.74710       -0.42530        0.63240
H         -1.54070       -1.60020        0.76320
H         -3.21210       -0.70390       -1.09860
H         -2.72440        0.89900       -0.44970
H          1.53940       -3.28170       -2.97580
