16
gdb 16879	4.18786	1.85666	1.42006	2.3499	64.08	-0.2298	-0.0174	0.2124	861.2951	0.131433	-383.742751	-383.736066	-383.735122	-383.773685	26.045
O         -0.02280        0.66760       -1.34740
C         -0.02780        1.28370       -0.30990
C         -1.33300        1.81010        0.29750
O         -1.14990        2.37640        1.58480
C         -0.22230        3.42540        1.55490
C          0.93120        3.31430        2.50150
C          1.13850        3.04280        1.02550
C          1.22240        1.61300        0.49820
H         -1.78180        2.52800       -0.40710
H         -2.03210        0.97600        0.40720
H         -0.64800        4.40230        1.32750
H          1.34030        4.22850        2.91630
H          0.92810        2.46430        3.17530
H          1.68270        3.78630        0.45300
H          1.27550        0.89680        1.32780
H          2.09900        1.44750       -0.13090
