14
gdb 2131	3.93021	3.13743	1.78323	2.9725	62.02	-0.2417	-0.0216	0.2201	692.0784	0.114427	-324.61015	-324.603684	-324.60274	-324.640433	23.651
C          0.01110        1.51040       -0.02620
C         -0.02570        0.01970       -0.02380
C         -1.05490       -0.82500       -0.13040
C         -0.55520       -2.23720       -0.07150
O          0.86220       -2.11590        0.07980
C          1.20420       -0.78690        0.11110
N          2.38120       -0.33600        0.23550
H          0.64510        1.87520       -0.84090
H         -0.98840        1.93780       -0.13500
H          0.45910        1.88260        0.90090
H         -2.10130       -0.57250       -0.24320
H         -0.95920       -2.80240        0.77940
H         -0.77050       -2.80940       -0.98410
H          3.05570       -1.09870        0.31090
