13
gdb 3110	6.29213	2.12853	1.83692	1.0367	61.08	-0.2346	0.0298	0.2644	687.4107	0.100889	-307.235414	-307.229222	-307.228278	-307.26516	23.651
C          0.01690       -1.22640       -0.03190
C          0.02080       -0.02270       -0.01340
C          0.00310        1.39500        0.02340
C          0.27790        2.29250       -1.18210
C          1.12100        2.44350        0.03550
O          0.46910        3.23890        1.01810
C         -0.59870        2.26220        1.13600
H          0.01880       -2.28780       -0.04930
H          0.73860        1.77250       -2.01520
H         -0.42750        3.07590       -1.44580
H          2.19900        2.34490        0.08450
H         -1.58860        2.69670        0.95660
H         -0.56850        1.77570        2.11570
