19
gdb 11744	4.84207	1.39823	1.28215	2.5829	71.19	-0.2354	0.0786	0.314	1017.0303	0.165894	-365.018093	-365.010134	-365.00919	-365.050073	30.616
C         -0.28820        1.40050        0.44390
C          0.14950       -0.03990        0.25040
C          0.78750       -0.50090       -1.09250
C          1.98820       -0.95290       -0.25940
C          2.63960       -2.31410       -0.30090
O          3.23100       -2.62360        0.94360
C          2.54630        0.17840        0.49950
N          1.35130       -0.50500        1.05050
H          0.48480        2.11710        0.15070
H         -1.17700        1.60840       -0.16150
H         -0.54110        1.58420        1.49320
H         -0.67490       -0.70290        0.52740
H          0.24470       -1.32010       -1.56900
H          0.99140        0.26870       -1.84290
H          1.88320       -3.06520       -0.58770
H          3.43450       -2.34850       -1.05590
H          2.57980       -2.35970        1.61000
H          3.43190       -0.01390        1.09520
H          2.46190        1.19140        0.11580
