22
gdb 6936	4.44891	1.05202	0.97685	0.886	80.21	-0.2391	0.0928	0.3319	1329.1612	0.197554	-350.195563	-350.185652	-350.184708	-350.230178	36.116
C         -0.10230        1.50110        0.07870
C         -0.18960        0.01190        0.36500
O         -1.14550       -0.55790       -0.51520
C         -1.31270       -1.92810       -0.34000
C         -2.22100       -2.43400        0.76100
C         -2.64270       -2.52760       -0.69830
C         -3.74430       -1.60310       -1.17890
C         -2.63820       -3.89920       -1.34590
H          0.63150        1.97410        0.73820
H          0.19810        1.67610       -0.95830
H         -1.07250        1.98030        0.23850
H          0.79120       -0.46930        0.21640
H         -0.48330       -0.17060        1.41040
H         -0.41780       -2.51380       -0.56240
H         -1.95090       -3.34130        1.29200
H         -2.71150       -1.68070        1.36900
H         -3.65430       -0.61240       -0.72980
H         -3.70130       -1.47860       -2.26720
H         -4.72970       -2.01280       -0.92900
H         -3.57040       -4.43520       -1.13150
H         -2.54210       -3.82090       -2.43530
H         -1.81090       -4.51600       -0.98060
