14
gdb 19956	3.87828	1.74052	1.46402	2.0792	58.	-0.26	-0.0348	0.2252	855.6527	0.105793	-419.639074	-419.631978	-419.631034	-419.670991	25.321
O         -0.14280        0.03360        0.05730
C          0.00680        1.21390        0.07080
C         -0.84700        2.44630        0.38220
O          0.24770        3.29250       -0.03540
C          1.15870        2.19480       -0.25390
C          2.31140        2.17040        0.71980
C          2.69780        3.37480        1.46380
O          1.95730        2.32300        2.09270
H         -1.74600        2.57560       -0.23170
H         -1.09320        2.56890        1.44370
H          1.52540        2.15250       -1.28850
H          3.05780        1.40130        0.51800
H          3.72640        3.48730        1.80160
H          2.13880        4.29160        1.29720
