16
gdb 20543	4.47107	1.4374	1.42756	2.0007	65.66	-0.2841	-0.0206	0.2635	951.6344	0.130912	-379.936687	-379.928986	-379.928042	-379.969576	27.424
C         -0.00980        1.54430        0.03540
C          0.03840        0.00490        0.00650
C          0.74510       -0.51710       -1.25860
C          0.68970       -0.53150        1.24170
N          0.17690       -1.29450        2.16420
C          1.23580       -1.44950        3.02460
N          2.33230       -0.83390        2.68130
O          1.97170       -0.21270        1.47690
H          0.99950        1.96590        0.04330
H         -0.52940        1.91680       -0.85210
H         -0.53950        1.90920        0.91980
H         -0.98370       -0.38440        0.03060
H          1.78110       -0.16840       -1.29870
H          0.75110       -1.61030       -1.28860
H          0.22700       -0.15360       -2.15080
H          1.18490       -2.03470        3.93140
