17
gdb 12478	3.48789	1.93276	1.36835	3.5613	66.12	-0.2565	0.0202	0.2767	903.6284	0.1442	-400.997818	-400.990541	-400.989597	-401.029609	27.282
N         -0.10070        1.28620        0.42110
C         -0.02580        0.11210       -0.05040
C         -1.31590       -0.67790       -0.22240
O         -1.37990       -1.44310       -1.40760
C         -0.90660       -2.77060       -1.27000
C          0.53260       -2.83000       -0.73110
C          1.34510       -1.60950       -1.15990
O          1.17910       -0.46510       -0.30810
H          0.83700        1.67870        0.53130
H         -1.46930       -1.31160        0.66540
H         -2.12300        0.05540       -0.24930
H         -1.58310       -3.35850       -0.63020
H         -0.95270       -3.19110       -2.27920
H          0.55150       -2.88780        0.36270
H          1.01940       -3.74040       -1.09880
H          2.41420       -1.82230       -1.08940
H          1.11670       -1.33100       -2.19500
