14
gdb 18778	4.11001	2.46044	2.14314	0.88	58.91	-0.2346	0.0739	0.3085	666.4419	0.107802	-382.442301	-382.436761	-382.435817	-382.471542	23.234
O         -0.04780        1.31380        0.06280
C          0.04480       -0.05570        0.04680
C         -0.14540       -0.93390       -1.20140
C         -1.07700       -1.05370       -0.00260
C         -0.07410       -2.10370        0.56600
C          0.74680       -2.12210       -0.76660
O          1.92700       -1.57670       -0.12470
C          1.00500       -1.00020        0.82860
H          0.67850        1.67430       -0.45940
H         -0.33760       -0.50740       -2.17680
H         -2.14770       -0.93870        0.07370
H         -0.27480       -2.95480        1.21090
H          0.94760       -2.96780       -1.42280
H          1.44810       -0.70670        1.77920
