13
gdb 1227	7.72005	1.35061	1.15771	3.8149	51.93	-0.2479	0.0113	0.2592	938.4028	0.101186	-377.834156	-377.826233	-377.825289	-377.86796	26.196
N         -0.03790        1.31490        0.00880
C          0.04650       -0.03930        0.00090
O          1.10480       -0.64150       -0.01400
C         -1.29990       -0.76540        0.01200
N         -1.05150       -2.18300        0.00420
C         -2.05400       -3.09080        0.00470
O         -3.23620       -2.80940        0.01420
H          0.81390        1.85100        0.00200
H         -0.91810        1.80000        0.02150
H         -1.87740       -0.46820        0.89770
H         -1.89520       -0.46190       -0.85960
H         -0.07580       -2.44930       -0.00760
H         -1.67500       -4.13150       -0.00450
