17
gdb 9893	3.75857	1.52355	1.31277	4.6608	65.28	-0.2365	0.0118	0.2483	969.409	0.142101	-401.010115	-401.00203	-401.001086	-401.042803	30.147
O         -0.09840        1.00380       -1.08090
C          0.04700       -0.15200       -0.32110
C          1.08950       -1.13180       -0.83890
N          2.47260       -0.84150       -0.43170
C          3.12120        0.32170       -0.64400
O          2.64000        1.33500       -1.12590
C         -0.20130       -0.07360        1.16820
C         -1.23390       -0.69030        0.24390
H          0.79420        1.38460       -1.17320
H          0.87440       -2.13850       -0.47310
H          1.02520       -1.14830       -1.93350
H          3.01270       -1.59570       -0.03940
H          4.17830        0.27580       -0.32290
H          0.35580       -0.72620        1.83290
H         -0.41350        0.91170        1.56560
H         -2.12280       -0.10880        0.02930
H         -1.38900       -1.76350        0.27910
