20
gdb 14181	2.64924	2.22469	2.10613	0.2735	79.6	-0.2692	0.0945	0.3637	844.214	0.176744	-311.810612	-311.803032	-311.802088	-311.841693	30.415
C         -0.00500        1.47930       -0.01600
C          0.02840       -0.02450       -0.06100
C          0.58380       -0.94160       -1.17370
C          0.06340       -1.91850       -0.10410
C          0.52560       -0.99740        1.07120
C         -0.85540       -1.04300        1.74930
C         -1.17610       -1.01200        0.23810
C         -2.52240       -1.02290       -0.43440
H          1.00540        1.89850       -0.08270
H         -0.58830        1.88720       -0.84970
H         -0.45510        1.84120        0.91530
H          0.06170       -0.92860       -2.13700
H          1.66790       -0.91690       -1.33100
H          0.07370       -3.01010       -0.10050
H          1.51890       -0.99170        1.52400
H         -1.11030       -1.96490        2.28370
H         -1.15280       -0.16920        2.33980
H         -3.11980       -0.15300       -0.13790
H         -2.42400       -1.00440       -1.52570
H         -3.09010       -1.92120       -0.16620
