14
gdb 5597	3.55861	1.91375	1.2978	2.3705	60.07	-0.1997	0.0169	0.2167	885.0096	0.108767	-415.880932	-415.873645	-415.872701	-415.912534	26.931
N         -0.04190        1.34810       -0.14060
C         -0.10640       -0.02740       -0.06650
C         -1.13860       -0.91420        0.03650
C         -2.60210       -0.61200        0.01540
O         -2.90790        0.46570       -0.87910
N         -0.60100       -2.19560        0.16310
C          0.67400       -2.02530        0.13130
O          1.06270       -0.71850       -0.00970
H          0.73310        1.69470       -0.69120
H         -0.93050        1.72770       -0.44670
H         -3.15810       -1.52430       -0.23770
H         -2.96590       -0.27030        0.99170
H         -2.67260        0.16760       -1.76480
H          1.46400       -2.75570        0.18850
