22
gdb 11566	4.48917	0.9269	0.87584	1.6359	78.89	-0.2618	0.0824	0.3442	1423.906	0.198649	-350.192193	-350.182509	-350.181565	-350.227423	34.827
C          0.05270        1.45750        0.25790
C         -0.04130       -0.04570       -0.02290
C         -1.47600       -0.59620       -0.13060
C         -2.23790        0.01110       -1.31770
C         -1.44360       -2.13750       -0.20160
C         -2.79600       -2.79010       -0.04420
C         -2.98380       -4.02400        0.72900
O         -3.36380       -2.75870        1.27150
H          1.09440        1.76270        0.39880
H         -0.35420        2.05700       -0.56200
H         -0.49680        1.72310        1.16820
H          0.50320       -0.28150       -0.94840
H          0.47810       -0.58620        0.77880
H         -2.00800       -0.33040        0.79370
H         -1.73530       -0.22420       -2.26440
H         -3.26210       -0.36810       -1.38070
H         -2.30450        1.09960       -1.23900
H         -1.00590       -2.45400       -1.15930
H         -0.78740       -2.51920        0.58960
H         -3.52270       -2.58800       -0.83250
H         -3.80570       -4.69800        0.49040
H         -2.12210       -4.49510        1.20120
