20
gdb 11471	3.93549	1.36343	1.09421	1.0834	71.67	-0.2515	0.0915	0.343	1145.1286	0.17652	-386.157797	-386.148991	-386.148047	-386.191805	31.621
C         -0.00040        1.57460        0.09880
C          0.03850        0.04460        0.08000
C         -1.34450       -0.58800        0.09360
C         -1.36960       -2.13310        0.10280
O         -2.39940       -2.47330        1.02340
C         -2.99510       -1.26250        1.46930
C         -3.40740       -1.37680        2.91930
O         -2.01930       -0.26240        1.30590
H          1.01030        1.99330        0.10740
H         -0.51810        1.96810       -0.78300
H         -0.52850        1.93440        0.98560
H          0.56700       -0.30940       -0.81440
H          0.59380       -0.33130        0.94780
H         -1.93460       -0.21380       -0.76060
H         -1.58450       -2.54700       -0.89020
H         -0.41960       -2.55200        0.45820
H         -3.86720       -1.03490        0.82570
H         -2.52910       -1.58380        3.53540
H         -3.87130       -0.44470        3.25230
H         -4.12760       -2.19020        3.03650
