16
gdb 20156	3.58678	3.05116	2.74239	1.5362	65.01	-0.2467	0.0941	0.3408	623.3972	0.134695	-346.578608	-346.573834	-346.57289	-346.607102	21.5
C         -0.04960        1.57660        0.00590
C          1.47320        1.77220        0.03920
C          1.93760        0.97660        1.27740
C          2.45860       -0.15560        0.42750
C          1.09600       -0.27530        1.07680
C          0.06140        0.03840       -0.04800
O          0.80800       -0.13790       -1.26630
C          1.98460        0.54610       -0.85820
H         -0.53470        1.94950        0.91270
H         -0.54410        1.97640       -0.88280
H          1.89210        2.75760       -0.15050
H          2.27590        1.35230        2.23420
H          3.27940       -0.84620        0.57090
H          0.91290       -0.98050        1.87510
H         -0.84850       -0.55770       -0.07260
H          2.65950        0.71390       -1.69380
