14
gdb 3420	4.54536	3.03626	2.10788	4.047	56.63	-0.2494	-0.0077	0.2417	624.8298	0.115106	-324.585556	-324.579719	-324.578775	-324.615421	21.958
O          0.03730        0.01880       -0.17800
C          0.00470        1.21200       -0.08490
C         -1.25790        2.07400        0.09330
C         -0.78800        3.53410       -0.00740
C          0.73640        3.44130        0.04310
C          1.38160        2.74360        1.17320
N          1.18050        2.04180       -0.12740
H         -1.99850        1.79750       -0.66000
H         -1.69690        1.82480        1.06460
H         -1.08770        3.97430       -0.96250
H         -1.19000        4.17340        0.78360
H          1.31160        4.17290       -0.51580
H          2.42210        2.92910        1.41900
H          0.76610        2.43240        2.01450
