16
gdb 18649	2.8238	2.45205	1.90425	2.1203	58.84	-0.2464	0.0704	0.3168	761.1473	0.131927	-420.849061	-420.842333	-420.841389	-420.879804	26.671
O         -0.04420        1.46150        0.15090
C         -0.07340        0.07080       -0.03250
C         -0.44950       -0.77610        1.14950
O         -0.95550        0.00380        2.21050
C         -2.36610        0.19960        1.99310
C         -2.62600        0.09670        0.46800
O         -2.83210        1.33450       -0.17860
C         -1.39690       -0.68100       -0.02040
H         -0.06750        1.59380        1.11170
H          0.69130       -0.27880       -0.71940
H          0.09290       -1.66560        1.45280
H         -2.92030       -0.57720        2.53700
H         -2.64390        1.18170        2.38320
H         -3.53680       -0.48350        0.29150
H         -1.96380        1.75840       -0.24340
H         -1.52780       -1.49670       -0.72060
