16
gdb 21041	3.9273	1.75093	1.22569	2.3841	69.11	-0.1852	0.049	0.2342	961.7164	0.132479	-376.1194	-376.111158	-376.110214	-376.151701	30.279
C         -0.03060        1.37610       -0.05520
N          0.00640       -0.06170        0.02410
N          0.07480       -0.81200       -1.12260
C          0.09730       -2.06750       -0.69350
N          0.22750       -3.12580       -1.59690
C          0.05590       -2.15370        0.71950
C          0.00450       -0.83480        1.13590
N         -0.11580       -0.26840        2.41130
H          0.97430        1.81830       -0.07220
H         -0.54680        1.65640       -0.97470
H         -0.58030        1.77010        0.80370
H          0.02490       -2.82260       -2.54150
H         -0.34740       -3.92230       -1.35590
H          0.09010       -3.03450        1.34000
H         -0.11370       -0.98120        3.12880
H          0.61230        0.40580        2.61960
