18
gdb 12419	3.00832	2.09675	1.52154	1.8564	63.44	-0.2496	0.0829	0.3325	879.9329	0.154675	-422.081012	-422.073352	-422.072408	-422.112552	29.392
C         -0.01330        1.53190       -0.03390
C          0.04790        0.01680        0.02560
O          0.77910       -0.43780       -1.12290
C          0.85800       -1.83740       -1.16600
O          1.53850       -2.37300       -0.05880
C          0.85940       -2.05310        1.15380
C          0.74990       -0.52960        1.28590
O          2.03260        0.04710        1.45300
H          0.98880        1.95260        0.07120
H         -0.44070        1.85560       -0.98630
H         -0.63630        1.91710        0.77910
H         -0.97170       -0.40510       -0.01520
H         -0.15940       -2.26990       -1.22160
H          1.43280       -2.10240       -2.05560
H         -0.14000       -2.51850        1.16710
H          1.45720       -2.46880        1.96780
H          0.17000       -0.26990        2.17870
H          2.54990       -0.23280        0.68730
