15
gdb 13735	3.08715	1.59333	1.33859	2.6505	68.37	-0.2422	-0.022	0.2202	955.7565	0.116372	-362.616621	-362.608273	-362.607329	-362.64981	30.006
C          1.00600        0.45430        0.71340
C         -0.04410       -0.00350       -0.27040
O         -0.13400        0.43430       -1.39600
C         -1.01410       -1.07650        0.16030
N         -0.75010       -1.83390        1.38600
C         -1.92740       -0.95520        1.36160
C         -1.96500        0.17750        2.24530
C         -2.05970        1.12040        2.98510
H          1.65610        1.18370        0.22960
H          0.53150        0.89760        1.59450
H          1.58320       -0.40300        1.07240
H         -1.46130       -1.58130       -0.69330
H         -1.03080       -2.80500        1.27910
H         -2.89830       -1.42650        1.21790
H         -2.13170        1.95380        3.63980
