16
gdb 15953	3.10154	1.90164	1.34636	1.7061	70.71	-0.2506	0.041	0.2915	922.6945	0.129201	-346.536988	-346.529433	-346.528489	-346.568824	28.702
C         -0.31240       -1.07680       -0.59970
C         -0.17320        0.07030       -0.26490
C          0.02390        1.44230        0.14900
C          0.08550        1.78590        1.67960
C          1.26710        2.75930        1.39920
C          1.43140        2.07480        0.04220
C          2.62550        1.50150       -0.57270
O          1.96300        2.65670       -1.12250
H         -0.44660       -2.08700       -0.89770
H         -0.69450        2.10070       -0.35300
H         -0.82150        2.21010        2.11110
H          0.39220        0.91770        2.26500
H          0.93440        3.79490        1.28210
H          2.11780        2.73470        2.08280
H          3.60400        1.69300       -0.13440
H          2.53890        0.59180       -1.16380
