15
gdb 3361	5.148	2.80754	2.13062	1.5944	55.73	-0.2517	0.0738	0.3256	628.3861	0.127483	-345.630685	-345.624966	-345.624022	-345.660445	21.364
C         -0.07910        1.46470       -0.28470
O          1.13530        1.71840        0.45500
C          1.39110        0.29910        0.59030
C          1.39180       -0.21900        2.03730
O          0.23450       -1.03780        2.16080
C         -0.75910       -0.52030        1.28650
C         -0.00770       -0.04090        0.03070
H         -0.93620        2.01640        0.12010
H          0.03890        1.71150       -1.34730
H          2.26870       -0.00410        0.00990
H          2.25920       -0.83750        2.28400
H          1.35670        0.64340        2.72000
H         -1.47680       -1.32130        1.09270
H         -1.29590        0.31950        1.75810
H         -0.07710       -0.73460       -0.80670
