17
gdb 11988	2.74169	2.14279	1.81346	3.1583	63.43	-0.2378	0.0689	0.3067	823.1843	0.141353	-400.94864	-400.940818	-400.939874	-400.980133	30.568
C         -0.15310        1.57100        0.05140
C         -0.01500        0.06150        0.05090
O         -1.22460       -0.59480        0.39670
C          0.66500       -0.61220       -1.15990
N          2.07020       -0.13000       -1.16970
C          1.67810       -1.26690       -0.29470
C          1.11760       -0.58280        0.95850
O          1.98830        0.25710        1.65790
H          0.77940        2.04770       -0.25810
H         -0.93910        1.88640       -0.64700
H         -0.41600        1.92640        1.05160
H         -1.91720       -0.26920       -0.18890
H          0.19070       -0.97880       -2.06300
H          2.52870       -0.51450       -1.99390
H          2.16710       -2.22910       -0.38340
H          0.65220       -1.26820        1.66880
H          2.51810        0.70140        0.98190
