13
gdb 21361	5.46798	2.17531	1.55621	3.8066	64.65	-0.1989	0.0257	0.2246	744.8473	0.099762	-357.665928	-357.659906	-357.658962	-357.695713	23.32
N         -0.04300        1.34950        0.01010
C          1.26510        1.85190        0.00020
C          2.16410        0.81850       -0.01440
C          1.39780       -0.39600       -0.01370
C          0.05940       -0.00990        0.00150
N         -0.71250       -1.12050        0.00340
N          0.07170       -2.24600       -0.01090
C          1.32770       -1.81430       -0.02080
H         -0.87890        1.90430        0.02220
H          1.42490        2.91840        0.00450
H          3.23710        0.92770       -0.02430
H         -1.71040       -1.22440        0.01110
H          2.12720       -2.54050       -0.03260
