22
gdb 15939	3.2777	1.70931	1.40062	0.1446	81.17	-0.2559	0.0794	0.3352	1014.3309	0.201082	-313.053618	-313.045326	-313.044382	-313.08694	31.861
C          0.08030        1.57020       -0.09490
C          0.12560        0.03710       -0.07030
C          0.66250       -0.52020        1.23420
C          2.18070       -0.32900        1.53040
C          2.32960       -1.85610        1.80520
C          0.81790       -2.06310        1.53240
C         -0.09210       -1.91210        2.77800
C         -0.23560       -0.38490        2.50090
H          1.07890        1.99800        0.04480
H         -0.31080        1.94120       -1.04720
H         -0.56060        1.96010        0.70330
H         -0.88270       -0.36190       -0.24680
H          0.74690       -0.32420       -0.90130
H          2.75050        0.01020        0.66000
H          2.41700        0.33610        2.36640
H          2.97870       -2.36180        1.08580
H          2.66250       -2.13340        2.81020
H          0.54620       -2.83720        0.81150
H         -1.03760       -2.45470        2.69920
H          0.37360       -2.18630        3.72960
H          0.14550        0.28360        3.27870
H         -1.26190       -0.08270        2.27160
