15
gdb 19277	3.38358	1.86974	1.3778	4.3749	61.14	-0.2444	-0.0303	0.2141	882.8979	0.118807	-399.754974	-399.747641	-399.746697	-399.786815	27.093
O          0.09760        1.36600        0.16330
C          0.09620       -0.01280       -0.16460
C         -1.31810       -0.57860       -0.06500
C         -1.60040       -2.09210       -0.11000
N         -0.88810       -2.67600        1.03260
C         -2.25790       -2.07760        1.24200
C         -1.97280       -0.59310        1.34630
O         -2.20670        0.26910        2.14470
H         -0.32170        1.45900        1.02730
H          0.47150       -0.08730       -1.19110
H          0.76910       -0.59270        0.48130
H         -1.99070       -0.02680       -0.73310
H         -1.88070       -2.68070       -0.97350
H         -1.02980       -3.68630        1.01460
H         -3.06140       -2.67260        1.65610
