19
gdb 17313	2.68688	2.39504	1.68705	1.691	75.07	-0.2002	0.0767	0.277	870.8468	0.164754	-327.837231	-327.829259	-327.828315	-327.869621	30.615
C         -0.08270        1.62810       -0.03080
C          0.14280        0.12000        0.05790
C          1.39190       -0.70280       -0.19810
C          2.68350       -0.17490        0.47730
N          2.40040        1.12090        1.14710
C          2.02570       -0.16420        1.79560
C          0.70600       -0.72510        1.17580
C         -0.03730       -1.83780        1.85790
H          0.61360        2.10000       -0.72710
H         -1.10110        1.82420       -0.38510
H          0.04670        2.12020        0.93270
H         -0.69340       -0.43010       -0.37630
H          1.41420       -1.48990       -0.94310
H          3.69190       -0.45450        0.20150
H          3.27270        1.42090        1.58410
H          2.40650       -0.43220        2.77320
H         -0.59190       -1.47260        2.73190
H         -0.75900       -2.30260        1.17850
H          0.64510       -2.62300        2.20650
