22
gdb 7134	6.63774	0.72193	0.66705	2.3505	79.61	-0.2397	-0.0054	0.2343	1771.776	0.197375	-350.243428	-350.232881	-350.231937	-350.280524	36.263
C          0.01110        1.62110       -0.04870
C         -0.00980        0.09230        0.01880
C          0.67300       -0.56110       -1.18280
C          0.66900       -2.08530       -1.14750
O          0.15960       -2.70270       -0.23900
C          1.34260       -2.78830       -2.32080
C          1.30590       -4.31430       -2.23790
C          1.99080       -4.98770       -3.42950
H          1.03680        2.00630       -0.07800
H         -0.50350        1.98900       -0.94380
H         -0.48350        2.06180        0.82240
H          0.47860       -0.25260        0.93640
H         -1.04150       -0.26970        0.08180
H          0.19880       -0.24320       -2.12300
H          1.71710       -0.22670       -1.26970
H          0.86580       -2.43480       -3.24680
H          2.37860       -2.42450       -2.38380
H          1.77790       -4.63100       -1.30170
H          0.26330       -4.64180       -2.16620
H          1.51140       -4.71040       -4.37540
H          3.04600       -4.69970       -3.49950
H          1.94980       -6.07790       -3.34440
