11
gdb 21899	3.80365	1.9689	1.29735	1.6677	61.62	-0.2328	-0.025	0.2078	842.7956	0.073139	-393.549805	-393.543125	-393.542181	-393.580555	24.822
O          0.13410        1.33520        0.02810
C          0.08320       -0.00260        0.02860
N          0.08000       -0.74070       -1.07210
N          0.02180       -1.98590       -0.58470
N         -0.01270       -2.11330        0.72420
C          0.02540       -0.84430        1.16870
C          0.00810       -0.48660        2.53330
C         -0.00530       -0.15210        3.68870
H          0.16610        1.63100       -0.89040
H          0.00520       -2.78700       -1.19380
H         -0.01720        0.14020        4.70940
