18
gdb 11037	4.04958	1.70646	1.40699	2.0328	66.73	-0.2478	0.0797	0.3275	924.9852	0.153984	-384.942793	-384.935129	-384.934185	-384.974401	29.699
C          0.08950        1.45110       -0.12840
C         -0.07800       -0.02640        0.09190
C         -1.36330       -0.73550       -0.31830
C         -1.21980       -2.15650        0.26570
C         -0.28100       -2.02230        1.49600
O          0.49350       -3.17730        1.75990
C          0.54360       -0.78700        1.18220
O          1.09170       -0.83890       -0.15090
H          1.05630        1.79160        0.25030
H          0.03860        1.68940       -1.19660
H         -0.70400        2.01140        0.37730
H         -2.21420       -0.20350        0.12470
H         -1.51030       -0.73360       -1.40360
H         -2.17690       -2.61240        0.52710
H         -0.73270       -2.81230       -0.46100
H         -0.85810       -1.84560        2.41180
H          1.08930       -3.28590        1.00880
H          1.18720       -0.33990        1.93610
