18
gdb 3076	10.19351	1.06355	1.02267	0.8903	65.71	-0.2335	0.0906	0.3241	1167.7837	0.159106	-326.92799	-326.919817	-326.918873	-326.961037	28.225
C          0.61020        1.55530       -0.25300
O          0.65330        0.17710        0.02350
C         -0.22440       -0.57230       -0.78610
C         -0.09560       -2.03810       -0.39010
N         -1.00100       -2.85260       -1.18930
C         -0.45730       -3.39860       -2.43030
C         -0.70020       -4.27690       -1.25340
H          0.90080        1.77350       -1.29340
H         -0.39440        1.97550       -0.08510
H          1.31570        2.04810        0.42060
H         -1.26740       -0.24230       -0.65360
H          0.02410       -0.44350       -1.85380
H          0.95990       -2.34740       -0.49070
H         -0.36810       -2.14710        0.66550
H         -1.13370       -3.41150       -3.28000
H          0.58000       -3.17390       -2.67560
H          0.17490       -4.63850       -0.71540
H         -1.55780       -4.94320       -1.22690
