15
gdb 9191	4.71439	1.0784	1.02604	3.4973	62.99	-0.2537	0.0119	0.2656	1159.557	0.118566	-395.992822	-395.98408	-395.983136	-396.027082	29.842
C          0.30890        0.89100       -0.13110
O         -0.18260       -0.25180        0.57220
C         -1.36950       -0.73380        0.15530
N         -2.02270       -0.19870       -0.79330
N         -1.69890       -1.81840        0.96060
C         -2.77230       -2.71300        0.60750
C         -2.50640       -3.56880       -0.56850
N         -2.28190       -4.24470       -1.47800
H          1.27170        1.12180        0.32630
H          0.42960        0.66830       -1.19410
H         -0.37830        1.73430       -0.02720
H         -2.88060       -0.69150       -1.01870
H         -0.90820       -2.23060        1.43350
H         -2.98500       -3.36060        1.46320
H         -3.68550       -2.13740        0.42160
