19
gdb 7437	3.17133	1.52196	1.1769	4.2641	69.57	-0.2472	0.0212	0.2684	1077.78	0.163598	-402.229484	-402.219766	-402.218822	-402.26388	34.266
C          0.04360        1.59730        0.16040
C          0.04680        0.06330        0.03900
O          0.81100       -0.50620        1.07040
C         -1.38820       -0.49610        0.15310
O         -1.70990       -1.01090        1.22030
N         -2.25260       -0.38270       -0.89160
C         -3.62570       -0.83910       -0.72940
C         -1.93670        0.17830       -2.19170
H          1.07720        1.95150        0.18900
H         -0.47020        2.08750       -0.67220
H         -0.44500        1.89210        1.09390
H          0.49810       -0.23020       -0.91790
H          0.14860       -0.87670        1.67990
H         -4.32600       -0.01030       -0.89110
H         -3.85450       -1.62860       -1.45550
H         -3.74460       -1.22660        0.28030
H         -0.87120        0.36920       -2.29700
H         -2.23550       -0.52250       -2.98090
H         -2.47620        1.12030       -2.35780
