11
gdb 21334	6.51217	1.32808	1.11064	0.8884	55.62	-0.2933	-0.0573	0.236	948.9942	0.072311	-393.568277	-393.561676	-393.560732	-393.600102	22.765
N         -0.52920       -0.50870       -1.22180
C         -0.19890        0.22770       -0.39600
C          0.24080        1.16760        0.63350
C          1.48210        1.90530        0.22880
C          2.24890        1.85790       -0.89090
O          3.25220        2.72010       -0.75830
N          3.09000        3.33290        0.52030
N          2.06510        2.84020        1.05570
H         -0.57020        1.87630        0.83920
H          0.41440        0.61870        1.56670
H          2.19240        1.28620       -1.80250
