16
gdb 17561	3.27967	2.14981	1.63614	0.3672	64.55	-0.2489	0.08	0.3289	824.8832	0.128789	-383.680637	-383.673328	-383.672383	-383.711937	27.781
C         -0.09330        1.53120        0.00860
C          0.11760        0.05550       -0.00310
O         -0.76030       -0.80290        0.74990
C          0.65260       -0.91540        0.97470
C          1.20850       -1.83460       -0.12680
C          0.63000       -0.82320       -1.14460
C          0.16840       -0.95420       -2.52280
O          1.41070       -0.29790       -2.20100
H          0.76660        2.03780       -0.43900
H         -0.98340        1.80120       -0.57070
H         -0.23090        1.89200        1.03100
H          1.01070       -0.76660        1.98670
H          2.30050       -1.84980       -0.17580
H          0.81320       -2.85260       -0.13650
H          0.27070       -1.90830       -3.03720
H         -0.61830       -0.30290       -2.90050
