20
gdb 6294	3.53233	1.02297	0.96251	3.3542	72.08	-0.2455	-0.0173	0.2283	1307.3047	0.173509	-386.156534	-386.146449	-386.145504	-386.192257	35.434
C         -0.12520        1.70650       -0.05460
C         -0.00410        0.18370       -0.00380
O          0.50810       -0.25370        1.25410
C         -1.33670       -0.50850       -0.33410
C         -1.29020       -2.05610       -0.29670
C         -2.67200       -2.68520       -0.11210
C         -0.59490       -2.59690       -1.53040
O         -1.04020       -3.45140       -2.25490
H          0.82770        2.17150        0.21150
H         -0.41380        2.04920       -1.05330
H         -0.88870        2.05850        0.65090
H          0.76150       -0.12940       -0.72350
H         -0.07760        0.08300        1.94200
H         -2.08450       -0.17380        0.39850
H         -1.69710       -0.16200       -1.31150
H         -0.64140       -2.31880        0.55240
H         -2.60950       -3.77570       -0.12070
H         -3.11630       -2.36740        0.83590
H         -3.34760       -2.39270       -0.92210
H          0.39920       -2.14200       -1.74590
