12
gdb 3788	7.96841	2.14392	1.71102	3.4272	52.47	-0.2335	0.0076	0.2411	691.0178	0.091696	-356.696744	-356.690383	-356.689439	-356.727281	21.796
C         -0.06450        1.44990       -0.05590
N          0.09250        0.00650       -0.00280
C          0.60870       -0.71040       -1.02000
N          0.61240       -2.01670       -1.14980
C          1.29690       -2.15670       -2.32440
N          1.69580       -1.06080       -2.90810
O          1.21990       -0.05580       -2.01350
H          0.86990        1.90980       -0.38440
H         -0.86360        1.76500       -0.73930
H         -0.29430        1.81290        0.94730
H         -0.48520       -0.52440        0.62810
H          1.50880       -3.11930       -2.76910
