13
gdb 15855	2.73092	2.07528	1.35494	6.4043	59.74	-0.2697	-0.0464	0.2234	873.744	0.093936	-398.607356	-398.599746	-398.598802	-398.639757	27.04
O          0.00610        1.37600       -0.20210
C          0.03040       -0.01030        0.00970
C          0.19710       -0.40880        1.51060
C         -1.32920       -0.54010        1.59750
O         -2.12760       -0.57300        2.47650
C         -1.44540       -0.53460        0.03570
C         -2.48980        0.22890       -0.61150
N         -3.33790        0.83110       -1.11450
H          0.90000        1.72040       -0.10700
H          0.68400       -0.53030       -0.69860
H          0.69220       -1.37380        1.66220
H          0.65170        0.33900        2.16380
H         -1.48110       -1.57750       -0.30070
