15
gdb 11176	3.67443	1.53533	1.38637	3.9931	64.53	-0.2558	-0.0336	0.2222	918.3859	0.119722	-362.713622	-362.706432	-362.705488	-362.745571	26.452
O          0.01030        0.00750       -0.12520
C         -0.02770        1.20250       -0.01220
C         -1.28680        2.06170        0.14390
C         -0.77760        3.42710        0.62100
C          0.63100        3.56560       -0.03620
C          1.20040        2.12820        0.01650
C          0.52190        4.05040       -1.41420
N          0.42400        4.42810       -2.50230
H         -1.75330        2.14130       -0.84650
H         -2.00970        1.58190        0.80620
H         -1.43540        4.25800        0.36260
H         -0.64620        3.42850        1.70800
H          1.25600        4.27370        0.51450
H          1.71890        1.96700        0.96880
H          1.90030        1.88430       -0.78410
