18
gdb 18961	6.29054	1.39031	1.38068	1.3918	72.16	-0.2142	0.0688	0.2831	966.7197	0.154414	-343.858819	-343.851859	-343.850915	-343.890003	27.256
C         -0.00170        1.64030       -0.10270
C          0.04420        0.11400       -0.09700
N         -1.30300       -0.44820        0.01650
C         -1.86670       -0.53640        1.39930
C         -2.72710       -1.78220        1.01910
N         -2.27300       -2.64930        2.15250
C         -1.06270       -1.83120        1.81900
C         -1.36910       -1.91520        0.28020
H          0.99930        2.05920       -0.24430
H         -0.64920        1.99990       -0.90740
H         -0.39370        2.02860        0.84360
H          0.46700       -0.24530       -1.04360
H          0.72020       -0.23560        0.70430
H         -2.14590        0.33120        2.00120
H         -3.72730       -1.80590        0.58800
H         -2.68540       -2.32330        3.03090
H         -0.12000       -1.93810        2.35570
H         -1.05840       -2.67800       -0.43430
