18
gdb 15688	3.18385	1.83614	1.3068	3.7629	68.68	-0.229	0.0655	0.2945	972.3837	0.156157	-381.176943	-381.168907	-381.167963	-381.209888	29.131
C         -0.03740        1.50300        0.13560
C         -0.06220       -0.01920       -0.04850
N         -1.38620       -0.60630        0.00210
C         -2.22360       -0.60830        1.18800
C         -3.48230       -1.34470        0.68390
N         -3.45240       -1.01870       -0.73570
C         -2.14320       -0.76750       -1.14490
O         -1.74710       -0.69450       -2.28950
H          0.99080        1.87270        0.07090
H         -0.62630        1.99370       -0.64490
H         -0.43660        1.80340        1.10980
H          0.34380       -0.28140       -1.02880
H          0.56290       -0.50250        0.71280
H         -1.74300       -1.12790        2.02340
H         -2.47320        0.41110        1.51870
H         -3.39600       -2.42600        0.86540
H         -4.39350       -0.98470        1.16860
H         -4.01780       -1.54080       -1.38690
