18
gdb 20814	3.30256	1.83959	1.30391	2.5994	74.45	-0.2275	0.0274	0.2549	975.4845	0.155117	-344.015658	-344.007399	-344.006455	-344.049083	29.453
C         -0.19390        1.49640        0.02480
C          0.05870       -0.02280        0.02660
C          0.78960       -0.51340       -1.18550
C          2.13820       -0.74790       -1.39020
C          2.23710       -1.16240       -2.73120
N          1.04920       -1.19000       -3.32730
N          0.17810       -0.79060       -2.37220
C         -1.23050       -0.71430       -2.69610
H          0.75050        2.04450       -0.03870
H         -0.81050        1.80010       -0.82700
H         -0.70960        1.80450        0.93960
H          0.65060       -0.28820        0.90840
H         -0.89690       -0.55120        0.13150
H          2.92700       -0.63830       -0.66280
H          3.11880       -1.44740       -3.28670
H         -1.82840       -1.29610       -1.98780
H         -1.58910        0.32050       -2.69340
H         -1.35130       -1.13150       -3.69500
