21
gdb 1096	4.06598	1.55413	1.52831	0.9971	71.47	-0.244	0.0805	0.3245	977.9934	0.191545	-312.129019	-312.119517	-312.118573	-312.162768	34.56
C         -0.15060        1.55960        0.01180
C          0.02740        0.04840        0.00200
O         -1.26200       -0.53180        0.01120
C         -1.37220       -1.96310        0.00460
C         -0.73050       -2.57550        1.26090
C         -2.88570       -2.20270        0.01780
C         -0.75480       -2.56190       -1.27020
H          0.82280        2.05990        0.00520
H         -0.71550        1.88410       -0.86670
H         -0.69860        1.87470        0.90440
H          0.59550       -0.25480       -0.89040
H          0.61240       -0.26420        0.88020
H         -1.12700       -2.09640        2.16120
H         -0.95070       -3.64610        1.31580
H          0.35780       -2.46480        1.26150
H         -3.34780       -1.74370       -0.86060
H         -3.11320       -3.27280        0.01430
H         -3.33080       -1.75320        0.90990
H          0.33330       -2.45110       -1.29060
H         -0.97600       -3.63190       -1.33240
H         -1.16850       -2.07330       -2.15760
