13
gdb 2329	5.47302	1.85617	1.54037	3.5919	51.05	-0.2591	0.0002	0.2593	768.7283	0.099784	-381.580675	-381.573465	-381.572521	-381.612402	24.924
O         -0.49700        1.26080       -0.40830
C         -0.22140       -0.07310       -0.11970
C         -0.30920       -0.63330        1.27500
C         -1.34660       -1.01390        0.24820
O         -2.61120       -0.41550        0.45110
C         -3.27780       -0.04870       -0.67490
O         -4.34770        0.47620       -0.63210
H         -1.08970        1.61110        0.26550
H          0.55730       -0.44310       -0.77760
H          0.40610       -1.38300        1.59390
H         -0.65000        0.03180        2.06250
H         -1.38970       -2.02860       -0.13620
H         -2.72500       -0.29670       -1.59820
