15
gdb 16087	4.42137	1.74499	1.4912	4.2746	70.69	-0.2532	-0.0035	0.2497	848.836	0.120789	-325.542333	-325.535824	-325.53488	-325.572817	25.457
N          0.02290       -1.11700       -0.08140
C          0.02060        0.03930       -0.02890
C          0.00300        1.47000        0.04540
C          0.39860        2.26040       -1.19020
C          1.30810        2.28640        0.01100
C          1.07540        3.40480        0.96930
C         -0.14390        3.35840        1.50920
C         -0.92890        2.14340        1.06600
H          0.71090        1.67760       -2.04920
H         -0.17420        3.15370       -1.41590
H          2.27220        1.79540       -0.05240
H          1.81900        4.17070        1.15390
H         -0.56080        4.09670        2.18390
H         -1.89830        2.40400        0.62490
H         -1.13770        1.46930        1.90550
