14
gdb 16788	3.4776	2.05109	1.45585	2.7406	62.3	-0.2443	-0.0302	0.2141	825.3072	0.107606	-382.578612	-382.572146	-382.571202	-382.609329	24.893
O          0.06770       -0.01150       -0.02240
C          0.01420        1.19100       -0.03850
C         -1.26100        2.03770       -0.13170
C         -0.79320        3.36410       -0.74310
O         -1.47360        4.13650       -1.36720
C          0.68510        3.49170       -0.51490
C          1.14090        3.26660        0.90590
C          1.19630        2.11610       -0.06890
H         -2.03060        1.55560       -0.73680
H         -1.68730        2.20260        0.86530
H          1.25380        4.14760       -1.16170
H          2.09190        3.70860        1.17920
H          0.40900        3.25400        1.70580
H          2.15610        1.71940       -0.37440
