18
gdb 18857	3.30156	2.45358	2.0635	0.4161	74.71	-0.217	0.018	0.235	762.1955	0.155944	-310.641694	-310.635364	-310.63442	-310.671632	26.527
C         -0.03720        1.60520       -0.02250
C          0.09530        0.08850       -0.01890
C          0.71530       -0.65420       -1.19800
C          2.26500       -0.76400       -1.10090
C          3.00120        0.14620       -0.17810
C          2.39740        0.15100        1.01580
C          1.13430       -0.67130        0.92970
C          1.37340       -1.64630       -0.27120
H          0.92140        2.09530       -0.20810
H         -0.73320        1.92070       -0.80830
H         -0.43000        1.97300        0.93270
H         -0.88200       -0.36680        0.17410
H          0.23730       -0.82920       -2.15560
H          2.74020       -1.16870       -1.98730
H          3.86570        0.72980       -0.47040
H          2.65650        0.77100        1.86530
H          0.72840       -1.05260        1.86570
H          1.36810       -2.72970       -0.26780
