14
gdb 4599	5.60592	1.60682	1.25859	2.7772	70.24	-0.2258	-0.0664	0.1594	922.4919	0.108015	-378.74679	-378.739872	-378.738928	-378.777947	25.753
C          0.01760        1.52270        0.21710
C         -0.03770        0.04570       -0.03180
C         -1.16600       -0.67720        0.06050
O         -1.20850       -2.01780       -0.16730
C         -0.04780       -2.68610       -0.51200
N         -0.02220       -3.93400       -0.73790
C          1.14620       -1.84210       -0.59490
N          1.16720       -0.57690       -0.37580
H          0.71300        1.74960        1.03230
H          0.38200        2.04950       -0.67130
H         -0.96560        1.92220        0.47860
H         -2.14110       -0.28470        0.31920
H         -0.94950       -4.34720       -0.63050
H          2.06560       -2.35660       -0.86410
