15
gdb 18635	3.27505	2.0438	1.76526	4.1208	60.64	-0.2276	-0.0172	0.2104	786.9749	0.120028	-399.790043	-399.783206	-399.782262	-399.821243	26.207
O          0.09910        1.30870       -0.10830
C         -0.02670       -0.06980       -0.04330
C         -0.47400       -0.68720        1.23110
N         -0.97730        0.31910        2.16850
C         -2.28370        0.80800        1.68800
C         -2.58220        0.08620        0.36220
O         -3.61870        0.17200       -0.24640
C         -1.40760       -0.76430        0.02660
H          0.12940        1.61030        0.81390
H          0.69410       -0.60260       -0.65730
H          0.01760       -1.55000        1.66500
H         -1.05360       -0.07690        3.09480
H         -3.09240        0.59570        2.39500
H         -2.27650        1.88930        1.50850
H         -1.56500       -1.64770       -0.57840
