18
gdb 14440	4.21159	2.01331	1.74489	1.7531	70.62	-0.2351	0.0941	0.3291	816.0808	0.15555	-347.781856	-347.77525	-347.774306	-347.812151	26.785
C         -0.04590        1.51230        0.02150
C          0.03290        0.01350       -0.01440
C          0.85370       -0.80670       -1.01870
C         -0.11780       -2.00230       -0.75770
O          0.38890       -2.89060        0.22760
C          0.54330       -2.12260        1.42710
C         -0.27090       -0.85330        1.20250
C         -1.08550       -1.02550       -0.04760
H          0.89910        1.95210        0.36270
H         -0.26020        1.92090       -0.97290
H         -0.83380        1.85520        0.70070
H          0.74160       -0.40870       -2.03240
H          1.91550       -0.98840       -0.81800
H         -0.45290       -2.58780       -1.61240
H          0.15970       -2.70940        2.27020
H          1.60680       -1.91630        1.61170
H         -0.71110       -0.34940        2.05550
H         -2.16020       -0.93380       -0.13200
