13
gdb 1050	7.76234	2.07104	1.65204	3.1775	55.42	-0.2003	0.0447	0.2449	716.6718	0.103704	-340.657197	-340.650893	-340.649949	-340.687429	22.668
C          0.07280        0.91310        0.59010
O          0.05130        0.93290       -0.82990
C          0.69410       -0.09890       -1.40920
C          1.38500       -1.19710       -0.96340
N          1.83690       -1.93000       -2.04720
C          1.42860       -1.28920       -3.11020
N          0.72230       -0.15870       -2.78020
H         -0.41070        0.00710        0.97610
H          1.10230        0.95750        0.96650
H         -0.47850        1.79380        0.92100
H          1.58350       -1.50260        0.05060
H          1.60130       -1.57570       -4.13640
H          0.29840        0.51300       -3.39780
