11
gdb 446	7.91279	3.67077	2.62431	1.8361	43.66	-0.272	0.0187	0.2907	475.1154	0.08643	-322.434119	-322.429025	-322.428081	-322.462711	17.785
N         -0.05320        1.27060        0.03880
C         -0.01710        0.01510       -0.04080
C         -1.20890       -0.91750       -0.11610
O         -0.64320       -2.15580       -0.52270
C          0.68190       -2.13460       -0.06990
O          1.10160       -0.76870       -0.07660
H          0.88750        1.66300        0.09650
H         -1.69760       -0.99350        0.86710
H         -1.94380       -0.59360       -0.85410
H          0.77300       -2.52370        0.95740
H          1.31070       -2.70850       -0.75510
