18
gdb 15812	6.02687	1.01157	0.93996	1.7106	70.38	-0.2658	0.018	0.2838	1289.1205	0.152947	-384.97252	-384.963829	-384.962884	-385.00664	30.653
C         -0.20060        1.48120       -0.21640
C          0.01370       -0.00720       -0.01980
O          0.69850       -0.50670       -1.18520
C          0.97320       -1.82690       -1.18140
O          0.67810       -2.57150       -0.27510
C          1.67690       -2.23210       -2.42440
C          2.70000       -3.34890       -2.30540
C          1.38730       -3.62450       -2.95880
H          0.75440        2.00180       -0.33040
H         -0.80560        1.67470       -1.10680
H         -0.71990        1.89960        0.65090
H          0.61930       -0.22140        0.86650
H         -0.93190       -0.54670        0.09450
H          1.86370       -1.43740       -3.13490
H          3.58790       -3.26920       -2.92170
H          2.85540       -3.74500       -1.30890
H          0.66290       -4.20520       -2.40020
H          1.34950       -3.73910       -4.03580
