14
gdb 3145	4.10646	2.80198	1.94172	1.9062	59.26	-0.2453	-0.031	0.2143	671.0996	0.113689	-324.557383	-324.550994	-324.55005	-324.587751	23.522
O          0.05170        0.15120       -0.60020
C          0.01400        1.26470       -0.15590
C         -1.08840        2.18340        0.41230
C         -0.05470        3.35900        0.39770
C          1.03820        2.36460       -0.02720
C          2.43670        2.16010        0.44680
N          2.17020        2.59700       -0.92170
H         -1.96450        2.29310       -0.23160
H         -1.42420        1.87670        1.40710
H         -0.26160        4.11290       -0.36430
H          0.10660        3.85370        1.35690
H          2.88220        2.91370        1.09080
H          2.76090        1.13790        0.62560
H          2.24660        1.80840       -1.56330
