18
gdb 12251	3.21714	1.58085	1.23009	3.2657	69.18	-0.2381	-0.017	0.2211	1031.4407	0.151406	-384.940458	-384.931679	-384.930735	-384.974086	31.288
C          0.23250        1.43510        0.06170
O         -0.22580        0.13050       -0.21530
C          0.54290       -0.54470       -1.17880
C          1.86730       -1.15140       -0.60690
C          1.12950       -2.50090       -0.52850
O          1.33120       -3.52740        0.05120
C         -0.03000       -1.98180       -1.39780
C         -1.46240       -2.31500       -1.00800
H          1.25080        1.43810        0.47780
H          0.22900        2.06330       -0.84250
H         -0.44920        1.86750        0.79760
H          0.65450        0.06880       -2.08290
H          2.69560       -1.17360       -1.32230
H          2.22560       -0.74420        0.34160
H          0.17250       -2.28770       -2.43310
H         -1.68980       -1.93440       -0.01060
H         -2.17720       -1.87630       -1.71040
H         -1.60280       -3.39980       -1.00670
