17
gdb 2071	4.19397	2.48188	1.73872	3.008	63.87	-0.2332	-0.0094	0.2238	747.4134	0.150525	-309.764115	-309.757612	-309.756668	-309.7945	24.961
O          0.00290       -0.07410       -0.00660
C         -0.01380        1.13500       -0.00600
C         -1.30860        1.93820        0.01130
C         -1.31940        3.02990       -1.07860
C         -0.06540        3.91020       -1.00520
C          1.20990        3.06470       -1.11260
C          1.25850        1.97350       -0.02320
H         -2.14880        1.24670       -0.08780
H         -1.38560        2.41950        0.99730
H         -1.36870        2.55100       -2.06520
H         -2.22550        3.63740       -0.98210
H         -0.08650        4.66170       -1.80200
H         -0.06020        4.46190       -0.05480
H          1.24580        2.58700       -2.10040
H          2.10120        3.69700       -1.04020
H          1.34870        2.45710        0.96050
H          2.11440        1.30550       -0.14510
