13
gdb 4324	3.9931	1.88201	1.27913	4.9388	66.08	-0.206	-0.0364	0.1696	872.9604	0.096656	-398.632763	-398.626189	-398.625245	-398.663387	25.356
O         -0.02390        1.36270        0.00840
C         -0.00340        0.00970        0.00070
C         -1.16830       -0.68160        0.00350
C         -1.18730       -2.12250       -0.00440
N         -2.23750       -2.83580       -0.00250
O          0.07850       -2.75630       -0.01510
C          1.21340       -2.04320       -0.01760
C          1.25320       -0.70050       -0.01030
H          0.87730        1.70070        0.00510
H         -2.12460       -0.17760        0.01170
H         -2.00160       -3.82760       -0.00940
H          2.09030       -2.68010       -0.02610
H          2.20480       -0.18330       -0.01280
