17
gdb 12444	3.29332	2.02868	1.37336	2.8638	70.98	-0.2488	0.0058	0.2546	903.154	0.144014	-363.871329	-363.864011	-363.863067	-363.903335	27.492
N          0.02550        1.36840        0.21180
C         -0.01250        0.12160       -0.00360
C         -1.33940       -0.60050       -0.09230
C         -1.62290       -1.34470       -1.38050
C         -0.83070       -2.27150       -1.91370
C          0.50410       -2.66930       -1.33260
C          1.45280       -1.48980       -1.10980
O          1.13310       -0.63640       -0.00400
H          1.00060        1.67020        0.28190
H         -1.37400       -1.31290        0.74620
H         -2.10840        0.15010        0.08990
H         -2.56620       -1.10970       -1.86520
H         -1.14550       -2.77370       -2.82450
H          0.37380       -3.19710       -0.37700
H          1.00970       -3.37070       -2.00520
H          2.45340       -1.86030       -0.87000
H          1.52100       -0.88660       -2.02490
