15
gdb 3176	5.64441	2.38734	2.03728	1.3114	56.71	-0.2477	0.0883	0.336	667.7131	0.125896	-345.632155	-345.625882	-345.624937	-345.662711	23.157
C          0.10030        1.54140        0.02380
C          1.25210        0.55520       -0.11740
C         -0.16400        0.07920        0.06470
C         -0.63730       -0.71330        1.28310
O         -1.24210       -1.87720        0.72180
C         -0.96350       -1.85480       -0.66260
O         -0.83620       -0.50220       -1.02790
H          0.00890        2.10730        0.94510
H         -0.21580        2.07170       -0.86750
H          1.68850        0.44190       -1.10340
H          1.94680        0.45030        0.70990
H          0.19450       -0.98490        1.94560
H         -1.39460       -0.17700        1.86680
H         -0.02970       -2.40540       -0.87770
H         -1.80080       -2.29650       -1.20990
