15
gdb 19647	5.27082	1.80255	1.71964	1.2939	63.4	-0.2115	0.0657	0.2772	793.1265	0.118073	-362.514625	-362.508054	-362.50711	-362.545393	25.082
C          0.04000        1.33700       -0.18110
O         -0.04660       -0.02930        0.21310
C         -1.30070       -0.54010        0.13590
C         -1.68450       -1.99900       -0.06970
C         -2.97310       -1.75230        0.75120
C         -2.61280       -0.32570        0.96730
N         -3.45410       -0.70780       -0.22220
C         -2.17900       -0.93020       -1.03360
H          1.08960        1.62340       -0.09420
H         -0.29490        1.47080       -1.21730
H         -0.56480        1.97920        0.47230
H         -1.04260       -2.85300       -0.22900
H         -3.65140       -2.40970        1.28300
H         -2.94580        0.39920        1.70110
H         -2.09900       -0.82840       -2.10820
