14
gdb 20634	3.90872	1.86779	1.27381	3.8225	69.65	-0.2368	-0.0695	0.1673	909.5698	0.107325	-378.711668	-378.704625	-378.70368	-378.743005	26.044
C         -0.00590        1.51210        0.03360
C         -0.03650        0.01300       -0.00920
C         -1.13600       -0.73370        0.19740
C         -1.07630       -2.18100        0.13730
N         -2.08710       -2.92570        0.32540
O          0.16690       -2.74460       -0.14240
N          1.31300       -1.98870       -0.35850
C          1.18970       -0.71180       -0.29070
H          0.69450        1.86740        0.79850
H          0.33360        1.92400       -0.92400
H         -0.99330        1.92300        0.25400
H         -2.10830       -0.30790        0.41570
H         -1.83180       -3.91070        0.23950
H          2.11750       -0.17410       -0.46800
