14
gdb 16639	3.24121	2.41022	1.61169	3.1042	56.39	-0.27	-0.0065	0.2635	772.3636	0.107996	-419.695514	-419.688959	-419.688015	-419.726313	25.027
O          0.16180        1.30090        0.39390
C         -0.05200       -0.05910        0.09070
C         -1.49990       -0.43720       -0.09120
C         -2.24120        0.21310       -1.24470
C         -1.56410       -1.10720       -1.43900
O         -0.28610       -1.06370       -2.06290
C          0.58760       -0.39280       -1.27290
O          1.68500       -0.06530       -1.62340
H          1.06330        1.50290        0.10820
H          0.41140       -0.71120        0.84880
H         -2.05940       -0.81910        0.75230
H         -3.32370        0.22010       -1.18990
H         -1.79920        1.08680       -1.71130
H         -2.09200       -2.02670       -1.65180
