17
gdb 6456	4.76775	1.28762	1.20642	2.5352	66.71	-0.2221	-0.0441	0.1781	1038.8192	0.140084	-400.976933	-400.968672	-400.967728	-401.009696	30.193
C         -0.04700        1.55770        0.14070
N         -0.00970        0.11540        0.10420
C         -1.22930       -0.63490        0.43890
C         -0.36260       -1.68000        1.21650
O         -0.10200       -2.85490        0.51700
C          0.76710       -0.60080        1.12690
C         -0.83710       -1.99480        2.61180
O         -0.95130       -3.13030        3.00690
H          0.95110        1.96020       -0.06090
H         -0.72080        1.93160       -0.63720
H         -0.38950        1.96290        1.11380
H         -1.92850       -0.08420        1.09150
H         -1.77460       -1.04900       -0.41460
H         -0.29920       -3.57680        1.13550
H          1.73470       -0.98920        0.79480
H          0.89890       -0.03580        2.06580
H         -1.07550       -1.12500        3.25710
