20
gdb 13409	4.71089	1.17619	1.08891	0.5775	71.63	-0.2575	0.0894	0.3469	1184.896	0.177681	-386.153895	-386.14537	-386.144426	-386.188044	30.567
C          0.41640        1.38670        0.05080
C          0.07530       -0.09190       -0.01670
O          0.70950       -0.64510       -1.16300
C          0.48000       -2.02100       -1.33320
C          1.16200       -2.45170       -2.64960
C          2.29300       -3.40150       -2.19540
C          2.40360       -3.08790       -0.69860
O          1.06500       -2.79260       -0.30180
H          1.49770        1.52770        0.13700
H          0.07550        1.90430       -0.85060
H         -0.06320        1.84850        0.91920
H          0.41280       -0.61550        0.88680
H         -1.01540       -0.23660       -0.09170
H         -0.59920       -2.22550       -1.28770
H          0.45540       -2.93970       -3.32370
H          1.54590       -1.55930       -3.14750
H          2.00160       -4.44640       -2.33590
H          3.22990       -3.23710       -2.73290
H          2.75520       -3.92350       -0.08900
H          3.05770       -2.22210       -0.52190
