20
gdb 16460	3.05653	2.6705	1.76585	0.1524	78.43	-0.2763	0.0977	0.374	823.6563	0.179529	-311.843498	-311.836832	-311.835888	-311.873733	27.904
C          0.01740        1.52240       -0.04680
C          0.03470        0.00880        0.00060
C          0.46310       -0.70260       -1.29160
C          0.35640       -2.18670       -0.85830
C         -0.10820       -1.99230        0.58160
C          0.64890       -0.78140        1.21690
C         -0.61280       -0.47460        2.05770
C         -1.13980       -0.81970        0.64490
H          1.01290        1.91290       -0.28880
H         -0.66730        1.87690       -0.82630
H         -0.29470        1.97480        0.89840
H         -0.20040       -0.45390       -2.12740
H          1.47820       -0.41790       -1.59060
H         -0.36770       -2.75240       -1.45360
H          1.31280       -2.71650       -0.91630
H         -0.28750       -2.87320        1.20150
H          1.69250       -0.76400        1.54220
H         -0.85070       -1.19060        2.84980
H         -0.74910        0.54810        2.41550
H         -2.17840       -0.84710        0.30440
