16
gdb 11441	3.67544	1.5762	1.2487	4.5211	60.86	-0.2434	0.058	0.3014	961.4947	0.132835	-417.102495	-417.094854	-417.09391	-417.13461	28.167
O         -0.08490        1.36720        0.21630
C         -0.00290       -0.04270        0.07340
C         -1.43380       -0.54900       -0.11570
C         -1.53010       -2.09300       -0.10480
N         -1.79560       -2.35610        1.30030
C         -2.37730       -1.25190        1.91810
O         -2.85880       -1.21780        3.02740
N         -2.29280       -0.20310        1.00800
H          0.77180        1.69880        0.49900
H          0.60470       -0.32500       -0.80140
H          0.43620       -0.51630        0.96400
H         -1.82820       -0.13000       -1.04700
H         -2.34420       -2.43310       -0.75950
H         -0.60080       -2.56470       -0.44150
H         -2.10190       -3.26400        1.61130
H         -2.23510        0.73140        1.38380
