17
gdb 13782	3.52127	1.36951	1.07153	4.3993	66.16	-0.2463	-0.0216	0.2247	1096.9136	0.140094	-400.976247	-400.96742	-400.966476	-401.010332	31.416
C         -0.09110        1.51340        0.38020
C         -0.00140        0.00440        0.15490
O          0.76450       -0.64100        1.16650
C         -1.38360       -0.61720        0.01630
N         -1.83490       -0.95320       -1.32880
C         -1.58530       -2.05290       -0.37010
C         -0.43500       -2.95300       -0.67140
O         -0.37020       -4.09030       -0.27870
H          0.90970        1.94320        0.46810
H         -0.61150        2.00050       -0.45070
H         -0.64320        1.73850        1.30170
H          0.54430       -0.18650       -0.77370
H          0.32270       -0.50870        2.01270
H         -2.12660       -0.23240        0.71730
H         -2.83510       -0.80840       -1.43600
H         -2.43260       -2.56620        0.07820
H          0.35760       -2.49950       -1.30240
