19
gdb 1576	4.23846	1.5069	1.273	2.262	64.62	-0.2529	0.0811	0.334	1013.1638	0.169573	-348.051118	-348.04206	-348.041116	-348.08514	31.666
C          0.13850        1.49820       -0.11500
C         -0.09830       -0.00200       -0.17720
O          0.75300       -0.54490       -1.16780
C          0.77030       -1.96740       -1.27290
C         -0.50010       -2.51970       -1.92290
C          2.02250       -2.26800       -2.10130
O          1.97420       -1.63190       -3.36410
H          1.18090        1.71310        0.13700
H         -0.08310        1.96170       -1.08070
H         -0.50510        1.95450        0.64300
H          0.11820       -0.46850        0.79820
H         -1.15440       -0.20860       -0.40760
H          0.89760       -2.40550       -0.26850
H         -0.58240       -2.15080       -2.94820
H         -0.46140       -3.61350       -1.95180
H         -1.39840       -2.23500       -1.36880
H          2.90740       -1.95110       -1.52810
H          2.10390       -3.34430       -2.28550
H          1.76930       -0.70770       -3.17740
