18
gdb 16584	3.13227	1.80816	1.48108	3.2223	72.54	-0.234	-0.0076	0.2263	937.3896	0.153059	-347.802642	-347.794621	-347.793677	-347.83481	30.088
C         -0.02390        1.56660       -0.03460
C          0.08210        0.05480       -0.06820
C          0.67460       -0.76430       -1.16100
C          1.35090       -0.73550        0.24720
C          2.54880       -0.10980       -0.39760
O          3.67750        0.07860       -0.03540
C          1.89170       -0.07540       -1.80730
C          2.67710       -0.91990       -2.80990
H          0.85400        2.06130       -0.45560
H         -0.90170        1.90340       -0.59680
H         -0.13360        1.91630        0.99690
H         -0.77660       -0.43400        0.39000
H          0.16250       -1.61230       -1.59920
H          1.37020       -1.47260        1.04120
H          1.69940        0.91890       -2.22320
H          2.85860       -1.92820       -2.42270
H          2.13410       -1.01180       -3.75580
H          3.64800       -0.45960       -3.01230
