18
gdb 14433	4.18951	2.12025	1.79656	0.5223	75.81	-0.2144	0.0204	0.2347	802.0851	0.155613	-310.645933	-310.63948	-310.638536	-310.675937	26.907
C         -0.06940        1.52260       -0.00090
C         -0.02630        0.02210       -0.03710
C          0.72040       -0.81000       -1.07610
C         -0.22860       -2.02790       -0.73370
C          0.44360       -2.81420        0.37120
C          0.45090       -2.07290        1.48410
C         -0.31200       -0.81450        1.24600
C         -1.14580       -0.99520        0.00320
H          0.90340        1.94070        0.28480
H         -0.33320        1.93890       -0.98040
H         -0.80840        1.88290        0.72300
H          0.50900       -0.42560       -2.07820
H          1.79880       -0.96890       -0.96290
H         -0.61950       -2.59130       -1.57950
H          0.97430       -3.74460        0.20990
H          0.95810       -2.30230        2.41310
H         -0.70980       -0.23520        2.07200
H         -2.22180       -0.87940       -0.06330
