19
gdb 14735	3.8965	0.97234	0.88677	1.6472	72.31	-0.2449	0.028	0.2729	1377.2647	0.163776	-402.187147	-402.177619	-402.176675	-402.222505	33.244
C         -0.22360        1.27770        0.91500
C          0.60430        0.12590        0.33520
N          0.69950       -1.11850        1.08200
C          0.08350       -1.26220        2.16720
O          0.12980       -2.45290        2.81520
C         -0.24920       -2.44940        4.18890
C          0.98580       -2.28190        5.06950
O          1.64780       -1.05640        4.81550
H          0.15680        1.60470        1.88880
H         -0.17990        2.13560        0.23730
H         -1.27740        1.00450        1.03510
H          0.21990       -0.12950       -0.66140
H          1.63210        0.47220        0.16270
H         -0.53710       -0.51260        2.67250
H         -0.96440       -1.63990        4.38620
H         -0.73920       -3.40790        4.38750
H          0.68020       -2.26840        6.12190
H          1.65590       -3.14120        4.92480
H          2.09440       -1.13950        3.96630
