15
gdb 23916	3.25067	1.64547	1.44423	2.209	54.	-0.2964	0.0779	0.3743	894.1451	0.114996	-494.168657	-494.16088	-494.159936	-494.201229	28.436
C         -0.08310        1.54740       -0.16280
C          0.00440        0.04420       -0.00400
C          1.29040       -0.71190       -0.21450
C          0.68500       -0.63160        1.16630
C          1.36830        0.14010        2.25530
F          2.22940        1.06440        1.78940
F          0.48480        0.78640        3.03730
F          2.06970       -0.68100        3.05580
H          0.84130        2.04420        0.13630
H         -0.28350        1.80510       -1.20780
H         -0.89500        1.95810        0.44620
H         -0.89220       -0.47900       -0.32650
H          1.27140       -1.66950       -0.72170
H          2.18710       -0.12680       -0.38480
H          0.21030       -1.52090        1.56650
