17
gdb 11005	3.91149	1.74354	1.47636	3.0664	68.74	-0.2403	-0.0209	0.2194	894.0007	0.143182	-363.878587	-363.871328	-363.870384	-363.909875	28.01
C         -0.00760        1.51320       -0.03220
C         -0.03350        0.00910        0.05710
C         -1.28990       -0.74110       -0.39490
C         -1.20480       -2.13860        0.25370
C         -0.22710       -1.97570        1.43270
O         -0.18550       -2.67400        2.41460
C          0.60820       -0.75880        1.17840
N          1.23320       -0.67690       -0.16590
H          0.95500        1.90130        0.30850
H         -0.15440        1.83860       -1.06850
H         -0.80350        1.95570        0.57570
H         -2.17590       -0.20820       -0.03330
H         -1.36180       -0.77390       -1.48780
H         -2.16160       -2.50680        0.62810
H         -0.82750       -2.90510       -0.43320
H          1.16750       -0.31530        1.99450
H          1.11660       -1.54870       -0.67900
