14
gdb 4604	5.6107	1.5363	1.20826	5.0666	69.29	-0.1903	-0.0348	0.1555	930.4354	0.110071	-378.786048	-378.779248	-378.778303	-378.816797	26.289
N          0.03330        1.46260        0.15230
C         -0.00340        0.05610        0.03740
C         -1.15940       -0.66590        0.00720
N         -1.12640       -2.03700       -0.00850
C          0.02420       -2.83500       -0.02850
O         -0.05940       -4.05480       -0.05800
C          1.24240       -2.04270       -0.00790
C          1.22120       -0.68430        0.03230
H          0.73890        1.88240       -0.44080
H         -0.85940        1.89740       -0.04400
H         -2.14310       -0.21160        0.00630
H         -1.99150       -2.55800       -0.02240
H          2.17230       -2.59770       -0.01710
H          2.15510       -0.12880        0.06690
