16
gdb 13355	5.48004	1.13057	1.05238	3.2946	62.31	-0.2631	0.0038	0.267	1104.8052	0.130715	-420.89964	-420.891955	-420.891011	-420.93343	26.591
O          0.68630       -0.06200       -0.14520
C          0.40310        1.08380        0.03250
O          1.17800        2.10080       -0.38790
C          0.76530        3.44850       -0.09650
C          1.82790        4.14450        0.76600
C          2.73280        4.76890       -0.30010
O          1.82820        5.22240       -1.29950
C          0.77630        4.27390       -1.40630
H         -0.51420        1.42880        0.54980
H         -0.22080        3.42210        0.37720
H          1.35830        4.93100        1.36450
H          2.33200        3.44280        1.43300
H          3.30590        5.63080        0.04910
H          3.43090        4.02030       -0.70540
H          0.93440        3.59030       -2.25110
H         -0.15840        4.82070       -1.56560
