16
gdb 3516	5.9499	1.97639	1.89426	1.4721	60.2	-0.2335	0.0778	0.3113	728.5229	0.137546	-325.710772	-325.704154	-325.70321	-325.741985	23.988
C         -0.24100        1.14940       -0.34840
C          1.15120        1.04250        0.17310
N          0.28870       -0.12980        0.10930
C         -0.19890       -0.70750        1.34790
C         -0.76600        0.17010        2.50190
O         -2.10130       -0.31440        2.26650
C         -1.64200       -1.24800        1.26590
H         -0.97240        1.66920        0.26610
H         -0.42140        1.21810       -1.41740
H          1.99960        1.04380       -0.50550
H          1.34950        1.48610        1.14760
H          0.54630       -1.43460        1.67970
H         -0.39820       -0.10490        3.49900
H         -0.69510        1.25920        2.39360
H         -2.13290       -1.09610        0.29790
H         -1.77630       -2.28980        1.58210
