18
gdb 16576	2.94349	2.59539	2.13504	0.8002	65.9	-0.2411	0.0825	0.3236	746.5108	0.157775	-384.949998	-384.943905	-384.942961	-384.979846	25.252
C         -0.02100        1.55500       -0.09110
O          1.34260        1.99490       -0.02310
C          2.18720        0.83350        0.07640
C          1.37860       -0.26970       -0.61420
C          0.02840        0.02710        0.05550
O          0.06180       -0.40470        1.41290
C          1.01020        0.28960        2.22160
C          2.38530        0.44740        1.55130
H         -0.60980        2.02720        0.70320
H         -0.45290        1.84020       -1.05970
H          3.13410        1.07840       -0.41080
H          1.33290       -0.11310       -1.69630
H          1.73030       -1.28090       -0.40400
H         -0.82940       -0.47290       -0.39830
H          0.62530        1.28680        2.47810
H          1.08240       -0.28290        3.15020
H          2.95780       -0.48600        1.60340
H          2.95500        1.21870        2.08010
