22
gdb 13503	3.01137	1.55719	1.17374	1.4101	77.81	-0.2543	0.07	0.3243	1112.4107	0.199509	-350.200489	-350.191227	-350.190282	-350.23397	34.998
C         -0.02950        1.58760       -0.00030
C          0.02420        0.06120        0.08490
O          0.72590       -0.36770        1.25440
C         -1.36010       -0.57200        0.01380
C         -2.17270       -0.48520       -1.30860
C         -2.66670       -1.93530       -1.05930
C         -1.51290       -2.13070       -0.02900
C         -0.31380       -2.90280       -0.57370
H          0.97820        2.00720        0.06340
H         -0.48600        1.91780       -0.93900
H         -0.62520        2.00130        0.82330
H          0.63520       -0.31510       -0.74430
H          0.21810       -0.07600        2.01980
H         -1.96300       -0.17330        0.84220
H         -2.92580        0.30220       -1.38970
H         -1.51520       -0.41990       -2.18180
H         -3.65360       -1.95740       -0.58860
H         -2.67860       -2.61390       -1.91680
H         -1.81810       -2.57400        0.92350
H         -0.00690       -2.53870       -1.56100
H          0.54410       -2.81640        0.09900
H         -0.56340       -3.96380       -0.68340
