18
gdb 20815	5.5507	1.2191	1.08897	2.2259	75.59	-0.2259	0.0265	0.2524	1144.32	0.154906	-344.014324	-344.005902	-344.004958	-344.048515	29.56
C          0.04150        1.58940       -0.18950
C          0.00530        0.07910        0.10310
C         -1.38230       -0.49370        0.11140
C         -2.18450       -0.77600        1.20150
N         -3.37010       -1.23660        0.72710
C         -4.49490       -1.74030        1.48380
N         -3.39450       -1.28510       -0.61840
C         -2.19930       -0.83380       -0.99160
H          1.07030        1.96420       -0.19590
H         -0.40630        1.81060       -1.16340
H         -0.52070        2.14700        0.56610
H          0.61210       -0.44460       -0.64560
H          0.48520       -0.11310        1.06970
H         -2.00110       -0.68510        2.26140
H         -4.50400       -1.27660        2.47250
H         -5.41440       -1.48550        0.95500
H         -4.44370       -2.82850        1.59940
H         -1.96120       -0.76310       -2.04390
