16
gdb 303	5.42634	2.9036	2.43856	1.7972	56.95	-0.2545	0.0923	0.3468	616.1558	0.140619	-271.630416	-271.623061	-271.622116	-271.660915	26.504
C         -0.02570        1.53000       -0.13740
C         -0.00200        0.03910        0.08550
O          1.25010       -0.63910       -0.08250
C          0.63590       -0.65930        1.21970
C          1.38730        0.08030        2.30570
C          0.10160       -2.01550        1.63310
H          0.81250        2.03310        0.34760
H          0.02630        1.74840       -1.20950
H         -0.95950        1.95760        0.24430
H         -0.83950       -0.48460       -0.38370
H          1.80350        1.02220        1.94650
H          0.73080        0.28950        3.15750
H          2.21750       -0.53480        2.67010
H          0.91970       -2.66380        1.96620
H         -0.60780       -1.92060        2.46260
H         -0.40260       -2.50620        0.79700
