17
gdb 14611	12.42791	0.57022	0.56029	2.4183	70.77	-0.2606	-0.0317	0.2289	1842.4689	0.140375	-363.893374	-363.884156	-363.883212	-363.928863	30.692
O         -0.14590       -0.09430       -0.17750
C         -0.01770        1.09870       -0.09160
C          1.30280        1.83580       -0.13380
C          1.33070        2.89400       -1.24980
C          2.61520        3.72780       -1.23520
C          2.63700        4.77190       -2.36950
C          3.85340        5.58140       -2.36240
N          4.82160        6.21170       -2.33950
H         -0.90700        1.76360        0.02360
H          1.43380        2.33470        0.83770
H          2.10780        1.10460       -0.25160
H          1.22500        2.39670       -2.22250
H          0.46160        3.55780       -1.14640
H          2.71740        4.24150       -0.27270
H          3.48850        3.07390       -1.33390
H          2.55510        4.27590       -3.34390
H          1.77350        5.44250       -2.28580
