18
gdb 13516	2.96569	1.76217	1.44061	3.5664	67.67	-0.2344	-0.0197	0.2147	956.205	0.151701	-384.939611	-384.930808	-384.929863	-384.973721	30.888
C         -0.31050        1.52830       -0.05390
C          0.01460        0.04240       -0.07580
C          1.37020       -0.39980       -0.67080
O          1.68430       -1.18070        0.49940
C          0.54780       -0.68200        1.20980
C          0.92060        0.24910        2.36300
C         -0.14030        0.42370        3.43430
O          1.98470        0.81910        2.39580
H          0.50320        2.11080        0.38790
H         -0.46820        1.89320       -1.07450
H         -1.22650        1.73500        0.51010
H         -0.81800       -0.52020       -0.50570
H          1.33530       -1.01330       -1.57810
H          2.08710        0.41910       -0.81190
H         -0.09160       -1.49470        1.58050
H         -0.20160       -0.48980        4.03820
H          0.11540        1.26430        4.08020
H         -1.13030        0.57590        2.99010
