18
gdb 5224	6.42124	1.06189	0.984	3.3909	74.46	-0.2134	0.0366	0.25	1228.1524	0.155633	-344.035813	-344.02774	-344.026796	-344.069704	29.152
C          0.09910        1.56450       -0.03360
C          0.23060        0.04050       -0.06750
C          0.51710       -0.56250        1.32260
C          0.61630       -2.05410        1.31220
N         -0.37490       -2.89780        1.51260
C          0.16350       -4.15520        1.36040
C          1.49670       -4.07690        1.06370
N          1.77530       -2.72670        1.03390
H          1.01650        2.03570        0.33750
H         -0.10220        1.96800       -1.03060
H         -0.72020        1.87570        0.62370
H         -0.68910       -0.40980       -0.45720
H          1.03130       -0.24870       -0.76030
H          1.44030       -0.12610        1.72670
H         -0.29060       -0.29110        2.00920
H         -0.43910       -5.04300        1.47830
H          2.25450       -4.82120        0.88440
H          2.67350       -2.31180        0.85140
