14
gdb 21046	3.97938	1.8409	1.27184	3.7177	60.8	-0.2006	0.0402	0.2408	903.3857	0.109025	-412.086545	-412.078888	-412.077944	-412.118412	27.638
C          0.12440        1.38800       -0.07400
N          0.08350       -0.04860       -0.00870
N          0.13750       -0.82300       -1.16550
C          0.06210       -2.04400       -0.73200
N         -0.02390       -3.17340       -1.52820
N          0.00040       -2.10650        0.63690
C         -0.00430       -0.79260        1.14120
O         -0.06920       -0.43460        2.29970
H          1.05220        1.73200       -0.54250
H         -0.72520        1.77760       -0.64420
H          0.07480        1.75510        0.95250
H          0.09760       -2.93000       -2.50370
H          0.62040       -3.90920       -1.26380
H         -0.18470       -2.91340        1.20670
