20
gdb 16243	2.95896	1.99901	1.55827	1.5364	74.06	-0.241	0.0866	0.3276	917.3878	0.17799	-348.997352	-348.989446	-348.988502	-349.029647	30.245
C          0.32160        1.66070       -0.13610
C          0.00200        0.17570        0.07510
C          0.58020       -0.70120       -1.04610
O          1.95390       -0.87670       -0.71330
C          2.08200       -0.89790        0.70770
C          0.73430       -0.43820        1.26980
C          0.58460        0.04940        2.68120
C          0.00150       -1.28580        2.27910
H          1.39190        1.80690       -0.31250
H         -0.21790        2.05550       -1.00340
H          0.03830        2.25740        0.73630
H         -1.08060        0.03880        0.16540
H          0.05920       -1.67130       -1.08890
H          0.53510       -0.23960       -2.03730
H          2.34220       -1.90860        1.05510
H          2.90460       -0.22490        0.98220
H          1.46370        0.05320        3.31860
H         -0.10030        0.86930        2.87320
H         -1.07790       -1.36680        2.19800
H          0.49020       -2.18540        2.64070
