11
gdb 1587	3.90224	2.30719	1.66527	2.0069	48.54	-0.2489	-0.1149	0.134	724.9332	0.074142	-380.412093	-380.404359	-380.403414	-380.444969	24.694
C          0.62290        1.32830       -0.18400
C          0.13860       -0.08650       -0.01920
O          0.04270       -0.67980        1.02710
C         -0.36700       -0.79790       -1.28830
O         -1.01880       -0.22720       -2.12950
C         -0.05540       -2.29120       -1.46020
O          0.90020       -2.82150       -0.96450
H          1.55730        1.32950       -0.75850
H         -0.10520        1.90390       -0.76310
H          0.79240        1.78200        0.79280
H         -0.74750       -2.79690       -2.16640
