13
gdb 5776	6.48308	1.46554	1.29687	1.952	60.77	-0.2448	-0.0138	0.231	894.6878	0.096989	-398.600314	-398.594014	-398.59307	-398.631367	22.715
C          0.44280        1.51260        0.21870
O          1.17510        0.37980       -0.24140
C         -0.20980        0.19890        0.09560
C         -0.52250       -0.64530        1.25100
C         -1.38820       -1.66980        1.46110
N         -1.27850       -2.11000        2.77360
C         -0.36700       -1.34740        3.28110
O          0.14260       -0.42780        2.43000
H          0.71650        1.87550        1.20730
H          0.23780        2.28000       -0.52670
H         -0.86130        0.01960       -0.75850
H         -2.07890       -2.12110        0.76660
H          0.03440       -1.35430        4.28220
