18
gdb 13402	5.54483	1.068	0.9629	0.995	70.17	-0.2326	0.0169	0.2495	1211.3775	0.153498	-384.934958	-384.926641	-384.925697	-384.968487	29.71
O         -0.08680        1.42500        0.15730
C          0.00630        0.00960        0.07190
C         -1.41020       -0.54530       -0.00060
C         -1.43810       -2.06950       -0.14660
O         -0.78600       -2.69040        0.97080
C         -1.65210       -3.63240        1.59740
C         -2.94510       -3.54130        0.83730
C         -2.82090       -2.66600       -0.15240
H          0.79960        1.77460        0.28550
H          0.57050       -0.29830       -0.82480
H          0.51870       -0.41680        0.94530
H         -1.96010       -0.25610        0.90160
H         -1.92440       -0.09260       -0.85750
H         -0.88920       -2.34290       -1.06570
H         -1.21040       -4.64120        1.54950
H         -1.76770       -3.38270        2.66360
H         -3.82190       -4.12540        1.08670
H         -3.57490       -2.38790       -0.87770
