15
gdb 18182	4.25533	1.89357	1.53599	1.5216	71.18	-0.2274	0.0039	0.2312	828.7534	0.119243	-325.461672	-325.454964	-325.45402	-325.492347	26.386
C         -0.10770       -1.26270       -0.16590
C         -0.04960       -0.06560       -0.07830
C          0.00430        1.38930        0.04200
C         -0.62850        1.91760        1.32690
C          0.22900        2.69810        1.97950
C          1.53320        2.75140        1.26200
C          2.24640        1.44750        1.13810
N          1.40080        1.92420        0.03720
H         -0.15670       -2.32000       -0.25250
H         -0.50430        1.82030       -0.83280
H         -1.62890        1.64230        1.63560
H          0.03910        3.22030        2.90910
H          2.07070        3.69160        1.17140
H          3.30590        1.42380        0.89810
H          1.88990        0.62410        1.75110
