14
gdb 1222	7.28478	1.46278	1.28107	4.8085	56.94	-0.2503	-0.0292	0.221	914.0963	0.110889	-361.723581	-361.715618	-361.714674	-361.756517	26.582
C          0.01830        1.22960        0.16570
C         -0.28970       -0.25060        0.06420
O          0.47490       -1.11300        0.41910
C         -1.66890       -0.59700       -0.51010
O         -1.79200       -1.93830       -0.91290
C         -1.84560       -2.87080        0.06850
N         -1.91270       -4.08990       -0.24090
H          0.89760        1.38320        0.79180
H          0.21780        1.62860       -0.83610
H         -0.83380        1.78770        0.56860
H         -2.42560       -0.32170        0.24330
H         -1.86880        0.01390       -1.39580
H         -1.84670       -2.44600        1.07950
H         -1.96540       -4.65910        0.60100
