15
gdb 3448	4.5619	2.92167	2.14892	2.0839	56.59	-0.2538	0.0898	0.3436	642.1606	0.125611	-345.639692	-345.633517	-345.632573	-345.66953	23.305
C          0.15110        1.55070       -0.01490
C          0.04200        0.03460        0.03550
O          0.69400       -0.50510       -1.11940
C          1.29490       -1.75610       -0.81210
C          1.52110       -1.74150        0.68370
O          2.16160       -0.54350        1.13870
C          0.73360       -0.62920        1.21350
H          1.20050        1.84730        0.05440
H         -0.25970        1.92740       -0.95510
H         -0.40440        2.00530        0.81150
H         -1.01910       -0.27080        0.05090
H          0.63820       -2.60280       -1.07340
H          2.21790       -1.83850       -1.39560
H          1.74240       -2.65150        1.23430
H          0.29580       -0.60960        2.20780
