14
gdb 9454	2.76953	1.77678	1.73389	1.9704	64.35	-0.2377	-0.0374	0.2003	854.3078	0.104011	-382.503458	-382.495297	-382.494352	-382.536069	29.576
O          0.16240        1.51840        0.23790
C          0.01000        0.13070        0.05590
C         -1.48390       -0.29790       -0.11200
C         -1.14650       -1.08090       -1.41680
C          0.21400       -0.37710       -1.42110
O          1.04620       -0.13420       -2.24050
C          0.76520       -0.66940        1.01100
C          1.42340       -1.33250        1.76880
H          1.10230        1.72290        0.16390
H         -1.90460       -0.87150        0.71210
H         -2.09060        0.58920       -0.30030
H         -1.03650       -2.15810       -1.25710
H         -1.77380       -0.91840       -2.29550
H          1.99900       -1.91420        2.44630
