15
gdb 1138	5.15746	1.88265	1.80689	3.2015	57.32	-0.2398	-0.0195	0.2203	748.7937	0.122494	-345.664882	-345.657621	-345.656677	-345.695982	27.38
C         -0.26300        1.57140       -0.04740
C          0.01050        0.07240       -0.00350
O         -1.17640       -0.68120       -0.15690
C          1.21680       -0.38020       -0.90450
C          2.03120       -0.56920        0.38310
O          3.19660       -0.71360        0.61370
C          0.78570       -0.40140        1.26190
H          0.65050        2.14960        0.12530
H         -0.65730        1.86550       -1.02800
H         -0.99680        1.84590        0.71610
H         -1.62600       -0.37720       -0.95300
H          1.00970       -1.33930       -1.39020
H          1.61660        0.32260       -1.64020
H          0.86250        0.28340        2.10980
H          0.40700       -1.36730        1.61130
