16
gdb 4816	4.94689	1.36589	1.08492	2.2895	67.69	-0.2113	0.0378	0.2491	1066.5069	0.131292	-379.950921	-379.942685	-379.941741	-379.984613	28.481
C         -0.00250        1.46330       -0.00690
N         -0.00190        0.01620        0.02820
C         -0.04030       -0.82750       -1.04120
N         -0.02480       -2.09110       -0.68170
C          0.02740       -2.07150        0.69310
C          0.05960       -3.33580        1.48860
O          0.10820       -2.99600        2.86660
C          0.04220       -0.78140        1.15410
H          0.91150        1.86760        0.43950
H         -0.05700        1.79350       -1.04610
H         -0.86480        1.86770        0.53240
H         -0.07930       -0.45590       -2.05520
H         -0.83140       -3.93990        1.25230
H          0.93480       -3.93490        1.18880
H          0.13280       -3.81240        3.37250
H          0.07860       -0.37120        2.14830
