17
gdb 1250	6.84496	1.16046	1.03874	3.0075	62.	-0.2546	-0.0261	0.2285	1116.4435	0.144496	-346.859384	-346.850546	-346.849601	-346.893533	29.819
C         -0.08310        1.55290        0.19880
C          0.00030        0.04450       -0.00160
C          0.78710       -0.64620        1.11520
O         -1.34620       -0.42360       -0.07280
C         -1.51240       -1.72190       -0.57590
C         -2.99080       -1.93050       -0.86090
O         -3.46490       -2.98390       -1.19320
H          0.91720        1.99490        0.21550
H         -0.65680        2.01470       -0.60880
H         -0.57900        1.78300        1.14710
H          0.49180       -0.16570       -0.96720
H          0.30260       -0.47430        2.08170
H          0.86300       -1.72560        0.95480
H          1.80530       -0.24790        1.16300
H         -0.95720       -1.87080       -1.51930
H         -1.17750       -2.50660        0.11970
H         -3.59930       -1.00700       -0.74050
