20
gdb 14981	4.10605	1.36668	1.09194	1.478	76.33	-0.233	0.0344	0.2675	1108.5736	0.178691	-349.020239	-349.012185	-349.01124	-349.052548	30.791
O         -0.02480        1.43510        0.07980
C          0.03000        0.01780       -0.01010
C         -1.39450       -0.52400        0.02240
C         -1.42040       -2.05110       -0.13710
C         -2.86050       -2.57490       -0.23860
C         -3.76570       -1.93980        0.78530
C         -3.43370       -0.85370        1.48200
C         -2.13350       -0.11320        1.30730
H          0.87550        1.77100        0.10670
H          0.52470       -0.30020       -0.94240
H          0.60460       -0.41080        0.82890
H         -1.92910       -0.08130       -0.83010
H         -0.84550       -2.35640       -1.01950
H         -0.93030       -2.50950        0.73270
H         -3.25900       -2.38940       -1.24750
H         -2.87180       -3.66600       -0.11960
H         -4.73310       -2.41030        0.94600
H         -4.12630       -0.45720        2.22140
H         -1.48520       -0.29360        2.18000
H         -2.30980        0.96740        1.30000
