13
gdb 3192	4.55635	3.69736	3.29154	1.7394	55.61	-0.2191	-0.0172	0.2019	508.2855	0.103739	-307.28191	-307.277175	-307.27623	-307.309961	19.963
O          0.00320        1.44620        0.00980
C          1.43390        1.57140       -0.00360
C          1.79230        0.71250        1.23820
C          0.89460       -0.26690        1.24220
C          0.00300        0.01000        0.00250
C          0.87020       -0.25430       -1.25700
C          1.76770        0.72530       -1.26100
H          1.74470        2.61480       -0.00140
H          2.63730        0.87980        1.89020
H          0.80420       -1.12040        1.89820
H         -1.00930       -0.39050        0.01040
H          0.76680       -1.10120       -1.91970
H          2.59970        0.89920       -1.92770
