17
gdb 2765	3.72207	2.2633	1.60962	2.9436	64.62	-0.2434	-0.0203	0.223	802.9428	0.147698	-309.720334	-309.712874	-309.711929	-309.752146	26.966
C         -0.58230        1.36660        0.02170
C          0.09510        0.00400       -0.02200
C          1.47470       -0.15310       -0.71760
C          1.89240       -1.14320        0.39920
C          0.71540       -0.62260        1.28670
C          1.16640        0.39460        2.29750
O          0.76480        0.46330        3.43200
H          0.09080        2.14680        0.39200
H         -0.91070        1.66410       -0.98020
H         -1.46410        1.35190        0.67120
H         -0.60270       -0.73400       -0.43150
H          1.48210       -0.51560       -1.74820
H          2.05350        0.77540       -0.67750
H          1.73760       -2.18670        0.11610
H          2.90040       -1.04280        0.81040
H          0.10040       -1.36420        1.80020
H          1.93740        1.11220        1.92720
