14
gdb 3759	3.85029	3.48461	1.87219	3.3698	58.72	-0.2498	0.0128	0.2626	668.8616	0.115018	-320.79358	-320.786635	-320.785691	-320.825637	23.487
C         -0.03020        1.42500       -0.04350
N         -0.02590       -0.02040        0.02190
N         -0.15610       -0.75120       -1.11620
C         -0.14080       -1.98920       -0.65480
N         -0.01270       -2.10480        0.69350
C          0.05520       -0.84360        1.09530
C          0.20010       -0.38830        2.50880
H          0.31580        1.83110        0.90790
H          0.63950        1.75200       -0.84120
H         -1.03640        1.80260       -0.25000
H         -0.22160       -2.83990       -1.31520
H          1.10920        0.20510        2.65630
H         -0.65100        0.22070        2.83200
H          0.25670       -1.26940        3.14860
