14
gdb 8826	2.97916	1.61647	1.1085	4.291	59.43	-0.2837	-0.0077	0.276	1024.9208	0.106092	-415.895518	-415.886808	-415.885864	-415.929728	29.502
C          0.00400        1.42980        0.06210
N         -0.10380       -0.01970        0.00450
C         -1.28330       -0.66450        0.00810
O         -2.38220       -0.14230        0.09380
C         -1.22860       -2.22320       -0.05240
O         -2.51910       -2.71570       -0.22100
C         -0.32010       -2.67200       -1.12440
N          0.44000       -2.99090       -1.93460
H          0.37590        1.83490       -0.88450
H         -0.99100        1.83070        0.25430
H          0.67870        1.73250        0.86820
H          0.73040       -0.55850       -0.17230
H         -0.79580       -2.57090        0.90070
H         -3.08240       -1.91930       -0.17910
