18
gdb 8282	5.56041	0.99746	0.93909	3.7143	69.3	-0.245	-0.0216	0.2234	1257.0451	0.151718	-384.938479	-384.92981	-384.928866	-384.973083	30.329
C          0.47430        1.46020        0.28050
C          0.03870        0.04510       -0.03470
C          0.53670       -0.62400       -1.33650
C          1.05480       -1.73360       -0.39940
C          2.53420       -2.10740       -0.45460
C          2.94300       -2.96850        0.72330
O          3.48570       -4.04000        0.62830
O          0.73110       -0.94640        0.76980
H          1.55110        1.58080        0.12730
H         -0.05270        2.17310       -0.36330
H          0.24520        1.70760        1.32180
H         -1.04740       -0.05520        0.10180
H         -0.21960       -0.91100       -2.06790
H          1.33300       -0.06610       -1.83620
H          0.44010       -2.64470       -0.43220
H          2.76560       -2.64130       -1.38160
H          3.12470       -1.18170       -0.41950
H          2.69680       -2.53110        1.71480
