18
gdb 10187	2.98617	1.21579	0.98805	3.5068	69.3	-0.241	0.0259	0.2669	1228.3408	0.153046	-381.118776	-381.109338	-381.108394	-381.153608	32.85
C         -0.16380        1.57350        0.18170
C         -0.26610        0.08120        0.48150
N         -1.05880       -0.58890       -0.54990
C         -1.24230       -2.01980       -0.34260
C         -2.33470       -2.38130        0.69820
O         -3.58170       -1.82000        0.34210
C         -1.61020       -2.65810       -1.62220
N         -1.97030       -3.17300       -2.59220
H          0.46330        2.07390        0.92510
H          0.26600        1.73760       -0.81010
H         -1.15140        2.04760        0.20650
H          0.73550       -0.36750        0.47320
H         -0.66490       -0.05930        1.50190
H         -1.97990       -0.16340       -0.61670
H         -0.28680       -2.45070       -0.01760
H         -2.38930       -3.47190        0.82410
H         -2.06120       -1.94110        1.66130
H         -3.91210       -2.29310       -0.43110
