17
gdb 4048	4.13543	1.39092	1.06117	1.8225	78.45	-0.2109	-0.0193	0.1916	1098.4078	0.141862	-363.852887	-363.84474	-363.843796	-363.885767	29.887
C         -0.03030        1.48340        0.04960
C          0.00230       -0.00720       -0.03590
C         -0.01320       -0.75680       -1.15100
C          0.03060       -2.17770       -0.82670
C          0.08070       -2.32380        0.68710
C          0.06000       -0.86470        1.21070
N          0.03120       -3.19990       -1.59520
O         -0.01960       -2.81950       -2.95330
H          0.85760        1.86520        0.57000
H         -0.07540        1.94710       -0.93870
H         -0.89730        1.82350        0.63080
H         -0.05280       -0.38650       -2.16590
H         -0.77190       -2.90380        1.05050
H          0.98250       -2.85910        0.99640
H          0.94740       -0.62360        1.81010
H         -0.80190       -0.66670        1.86080
H         -0.01310       -3.67270       -3.39860
