21
gdb 17272	4.85289	1.07692	0.99864	1.0513	79.39	-0.2201	0.0896	0.3097	1263.489	0.18832	-329.08199	-329.073281	-329.072336	-329.115688	32.478
C          0.04910        1.52850       -0.31830
C          0.16190        0.04190       -0.05510
C          1.48860       -0.62410        0.09200
N          0.58150       -0.52150        1.22920
C          0.95350        0.35540        2.33460
C          1.67060       -0.42790        3.41080
C          3.17050       -0.58150        3.37780
C          2.52210        0.29080        4.42500
H          0.90090        2.09050        0.07220
H          0.00010        1.71120       -1.39710
H         -0.86330        1.94200        0.12630
H         -0.63830       -0.53830       -0.51470
H          1.66770       -1.62380       -0.29590
H          2.36390        0.02610        0.08120
H          1.59080        1.20290        2.02710
H          0.02890        0.78340        2.74340
H          1.11010       -1.28670        3.76780
H          3.59990       -1.52810        3.68630
H          3.71480       -0.08830        2.57890
H          2.63230        1.36610        4.32570
H          2.50470       -0.05760        5.45160
