13
gdb 16517	3.93369	2.52388	1.81323	3.0297	58.43	-0.2244	-0.0542	0.1702	694.2352	0.093778	-398.448017	-398.441833	-398.440889	-398.477799	24.793
O          0.07660        1.35250        0.05680
C         -0.00140       -0.01510       -0.07720
C          0.84730       -0.77090       -1.13750
N          0.47390       -2.19520       -0.87900
C         -0.58190       -2.05610       -0.19260
O         -0.62750       -2.34140        1.17750
C         -0.67080       -0.84160        1.21050
C         -1.32180       -0.68110       -0.08740
H          0.96560        1.58220        0.35110
H          0.63530       -0.38460       -2.14570
H          1.92810       -0.70870       -0.96730
H         -0.83440       -0.39730        2.18500
H         -2.31240       -0.38810       -0.41100
