18
gdb 17283	5.50515	1.00298	0.93147	2.1394	68.64	-0.2569	0.0786	0.3355	1251.2655	0.15279	-384.893663	-384.885375	-384.884431	-384.927117	30.317
O         -0.00730        1.44100        0.31480
C         -0.05560        0.07670        0.00410
C         -0.61470       -0.89430        1.01480
C         -1.41430       -0.51690       -0.22120
C         -2.66350        0.33280       -0.09650
C         -3.87180       -0.49050        0.27940
C         -5.21160       -0.20980       -0.24840
O         -4.44020       -1.29900       -0.75830
H          0.68570        1.57020        0.97020
H          0.75470       -0.26930       -0.63760
H         -0.18680       -1.88820        1.08800
H         -0.94110       -0.46890        1.95900
H         -1.47430       -1.27520       -0.99650
H         -2.50270        1.11540        0.65220
H         -2.86410        0.83880       -1.04840
H         -3.80480       -1.00380        1.24070
H         -6.09410       -0.48840        0.32640
H         -5.35220        0.62470       -0.93490
