16
gdb 2376	4.43512	1.98202	1.78638	3.3467	61.84	-0.2437	0.0297	0.2734	778.3064	0.136667	-325.807685	-325.799975	-325.799031	-325.83934	28.182
C         -0.39330        1.43370        0.11420
C         -0.00780       -0.02810        0.07070
C          1.36590       -0.47260       -0.31830
C          0.91140       -0.67130        1.11400
C          1.55540        0.16810        2.17190
N          1.49340       -0.35970        3.43370
O          2.11340        1.22980        1.94800
H          0.43290        2.04460        0.48070
H         -0.66880        1.78080       -0.88770
H         -1.25590        1.59460        0.77040
H         -0.81220       -0.69140       -0.23860
H          1.48870       -1.35380       -0.93780
H          2.11570        0.30040       -0.44950
H          0.64770       -1.68050        1.41530
H          0.90710       -1.14640        3.65070
H          1.82310        0.21380        4.19310
