17
gdb 12454	3.21616	1.99215	1.41621	3.1039	70.18	-0.221	-0.0085	0.2125	894.2293	0.144011	-363.876246	-363.869053	-363.868108	-363.907807	27.61
O          0.28060        1.23820       -1.70350
C          0.10930        1.52230       -0.54380
C         -1.22390        2.12270       -0.07660
N         -1.25080        2.44050        1.34120
C         -0.59310        3.69360        1.69200
C          0.90080        3.66130        1.52320
C          1.65350        2.66630        1.05310
C          1.17520        1.32560        0.52980
H         -1.44540        2.97970       -0.73830
H         -1.98620        1.36410       -0.28700
H         -2.20660        2.45720        1.67320
H         -0.98630        4.55660        1.11410
H         -0.82420        3.91220        2.74330
H          1.39820        4.58090        1.82590
H          2.72570        2.83010        0.98910
H          0.74770        0.72850        1.34250
H          2.00090        0.77270        0.07880
