16
gdb 297	5.17369	3.14505	2.90044	1.3454	56.29	-0.2526	0.0743	0.3269	562.0396	0.142376	-271.627826	-271.621262	-271.620317	-271.657345	25.093
C         -0.10090        1.53840       -0.02210
C         -0.00960        0.01570       -0.01550
O         -1.28680       -0.57080       -0.18880
C          1.14620       -0.54230       -0.90720
C          2.01390       -0.68860        0.37240
C          0.72030       -0.56430        1.22240
H          0.87470        1.99970        0.16170
H         -0.45690        1.90190       -0.99480
H         -0.79690        1.88080        0.75020
H         -1.71120       -0.15090       -0.94500
H          0.86070       -1.51340       -1.31940
H          1.52100        0.09580       -1.71280
H          2.59020       -1.60940        0.47880
H          2.69050        0.15800        0.51580
H          0.74840        0.05390        2.12350
H          0.29980       -1.54120        1.47230
