13
gdb 20331	5.72733	1.29969	1.25123	5.7189	63.67	-0.2529	0.0038	0.2568	955.7094	0.096243	-357.611583	-357.604529	-357.603585	-357.644633	24.877
C         -0.03610       -1.23380       -0.00510
C         -0.01870       -0.03360        0.00180
C          0.00040        1.42680        0.01020
N          1.34600        1.99140        0.00020
C          2.14670        2.27930        1.07090
N          3.30700        2.73290        0.67660
N          3.29210        2.74370       -0.70640
C          2.12350        2.29610       -1.08280
H         -0.04790       -2.29620       -0.01130
H         -0.53730        1.81820       -0.85980
H         -0.52010        1.80780        0.89520
H          1.83030        2.14280        2.09370
H          1.78520        2.17560       -2.10050
