15
gdb 12902	3.50276	1.82292	1.55469	5.0357	66.05	-0.2556	0.0284	0.2841	858.2747	0.118526	-362.637994	-362.630666	-362.629721	-362.669464	27.126
C         -0.06550        1.50890        0.03200
C          0.03520        0.02140        0.09930
O         -1.15870       -0.73880       -0.04990
C         -0.68150       -1.71300        0.92340
C          0.64780       -0.98140        1.04610
C          1.23950       -0.79330       -0.35340
C          1.15580       -1.80760       -1.36730
N          1.08510       -2.62980       -2.17800
H          0.90720        1.97240        0.21690
H         -0.41000        1.81870       -0.96030
H         -0.77970        1.87900        0.77330
H         -1.28580       -1.66690        1.83440
H         -0.67070       -2.73050        0.52120
H          1.25150       -0.86430        1.93580
H          2.17190       -0.23670       -0.35050
