20
gdb 9779	2.89015	1.56568	1.38601	0.5489	80.24	-0.2583	0.0534	0.3117	1031.3587	0.174714	-311.830634	-311.821424	-311.82048	-311.863868	34.98
C         -0.33540        1.39920        0.02390
C          0.05930       -0.09180       -0.03260
C          0.84540       -0.37860       -1.23480
C          1.49990       -0.59840       -2.21940
C          0.78510       -0.56310        1.23720
C          2.11650        0.10220        1.52980
C         -0.08940       -0.95330        2.40470
C          0.62880       -2.01690        1.60560
H          0.54860        2.04170        0.03920
H         -0.93060        1.67190       -0.85140
H         -0.92520        1.59780        0.92380
H         -0.87020       -0.67380       -0.10100
H          2.07090       -0.80120       -3.09140
H          2.00430        1.17620        1.71420
H          2.57880       -0.33640        2.41920
H          2.80880       -0.02580        0.69120
H          0.26790       -0.73280        3.40510
H         -1.16640       -0.87460        2.29410
H          0.03750       -2.65160        0.95380
H          1.47340       -2.52030        2.06370
