20
gdb 12418	2.80686	2.10261	1.47819	0.2107	70.86	-0.2311	0.0867	0.3178	933.1729	0.17778	-386.146049	-386.138024	-386.13708	-386.177848	31.112
C         -0.06880        1.51360       -0.09510
C          0.05950        0.00140       -0.00420
O          0.70410       -0.45020       -1.19400
C          0.74670       -1.86730       -1.24710
C          1.48260       -2.42190       -0.03350
O          0.90440       -1.93790        1.16910
C          0.82570       -0.50830        1.23100
C          2.20360        0.13220        1.42440
H          0.91110        1.98390       -0.21060
H         -0.67840        1.78450       -0.96110
H         -0.54640        1.91560        0.80400
H         -0.94670       -0.45030        0.04050
H         -0.27760       -2.27430       -1.27770
H          1.25880       -2.13830       -2.17580
H          1.40430       -3.51320        0.00440
H          2.54920       -2.15850       -0.09430
H          0.21330       -0.31470        2.11930
H          2.78660        0.12590        0.50000
H          2.10400        1.17130        1.75090
H          2.75510       -0.41460        2.19400
