14
gdb 369	6.77272	2.23073	1.78456	1.3163	55.08	-0.2613	0.0553	0.3166	682.8459	0.117465	-270.3961	-270.388643	-270.387698	-270.426967	26.225
C          0.00160        1.56590       -0.00280
C         -0.00400        0.02590        0.04250
C          0.75690       -0.50900        1.26770
O          2.10240       -0.07440        1.15760
C         -1.36220       -0.51130        0.02630
C         -2.48350       -0.94490        0.03600
H          1.03030        1.93030        0.02730
H         -0.48030        1.92820       -0.91420
H         -0.54160        1.97650        0.85420
H          0.53010       -0.34670       -0.84220
H          0.27970       -0.12710        2.18350
H          0.68770       -1.60630        1.28630
H          2.57580       -0.35420        1.94590
H         -3.47280       -1.33060        0.03110
