19
gdb 17486	3.37597	2.38261	1.87095	1.8363	73.41	-0.2205	0.0823	0.3027	799.7861	0.167821	-327.897904	-327.891245	-327.890301	-327.928115	27.53
C         -0.00610        1.51000        0.06370
C         -0.00370       -0.00410        0.02770
C          0.25840       -0.70860       -1.33180
N         -0.92740       -1.61500       -1.16430
C         -0.87710       -2.16800        0.22430
C          0.45020       -2.20010        0.97490
C          0.83310       -0.70350        1.11340
C         -1.35000       -0.78640        0.02070
H          1.00390        1.90820       -0.08700
H         -0.64840        1.92730       -0.71900
H         -0.36730        1.88290        1.02920
H          0.07250       -0.06160       -2.19340
H          1.22040       -1.21730       -1.47050
H         -1.58470       -2.98050        0.35180
H          0.32820       -2.68650        1.94710
H          1.20620       -2.77370        0.42760
H          1.90590       -0.52440        0.98010
H          0.55290       -0.32280        2.10300
H         -2.35700       -0.40410        0.14690
