19
gdb 17668	3.85032	1.44823	1.26627	2.1258	71.28	-0.2381	0.075	0.3131	1020.7466	0.164707	-365.013863	-365.005321	-365.004377	-365.046694	32.256
C          0.00970        1.70950        0.38850
C         -0.05590        0.23310        0.03990
C          0.96730       -0.30600       -0.94480
C          1.05340       -0.66430        0.52090
O          2.04760       -0.09820        1.32350
C         -1.45990       -0.31240        0.04570
C         -2.29500       -0.31270       -1.18240
N         -1.84480       -1.58290       -0.58360
H          1.04290        2.04090        0.50290
H         -0.47350        2.31260       -0.38750
H         -0.50640        1.90600        1.33510
H          0.69440       -1.07820       -1.65830
H          1.69440        0.40670       -1.32000
H          0.76980       -1.68050        0.79650
H          2.88640       -0.51030        1.09260
H         -1.96980       -0.15140        0.99540
H         -3.36440       -0.13050       -1.12630
H         -1.82320        0.01730       -2.10490
H         -1.07600       -1.96400       -1.12970
