18
gdb 18371	3.16909	2.20057	1.59163	2.3533	66.31	-0.2419	0.0674	0.3094	841.1211	0.155744	-384.932509	-384.925449	-384.924505	-384.963661	27.514
O         -0.00040        1.40680       -0.06430
C          0.03800       -0.00410        0.07410
C          0.58610       -0.51160        1.42610
C         -0.01590       -1.92100        1.55880
C         -1.42400       -1.76440        0.98250
O         -2.30170       -1.03460        1.87300
C         -2.41050        0.06710        0.94150
C         -1.38620       -0.57360       -0.01260
H          0.89580        1.74180        0.03720
H          0.63500       -0.44810       -0.73990
H          1.67940       -0.49870        1.47160
H          0.20770        0.13600        2.22380
H          0.54430       -2.64490        0.95340
H         -0.03820       -2.29220        2.58710
H         -1.88070       -2.70540        0.65650
H         -3.42510        0.15080        0.53300
H         -2.11900        1.02380        1.38600
H         -1.72220       -0.73270       -1.03680
