10
gdb 494	9.90773	2.00413	1.75551	3.3728	45.57	-0.2899	-0.0071	0.2828	646.0972	0.07256	-301.345683	-301.339414	-301.33847	-301.376371	20.023
N          0.07200        1.15260       -0.24450
C         -0.17700       -0.03820        0.06980
O         -0.59050       -0.90460       -0.89540
C         -0.85590       -2.22940       -0.47370
C         -2.10740       -2.34710        0.29240
N         -3.08220       -2.43900        0.90480
H          0.37650        1.67900        0.57160
H         -0.09820       -0.49460        1.06510
H         -0.93450       -2.82800       -1.38420
H         -0.03270       -2.63650        0.12790
