13
gdb 7027	7.49969	0.8748	0.81434	1.0783	57.67	-0.2648	-0.0417	0.2231	1290.1995	0.092262	-435.764212	-435.755865	-435.754921	-435.798612	27.395
N         -0.04090        1.53100        0.19990
C          0.02880        0.31560       -0.12800
C         -1.17240       -0.58410       -0.17340
C         -2.48610        0.16470       -0.00640
O         -3.37560       -0.21920        0.70410
O          1.17190       -0.37100       -0.52150
C          2.35230       -0.13460        0.13110
O          3.38390       -0.57530       -0.26120
H          0.84780        2.02620        0.13720
H         -1.18040       -1.09760       -1.14540
H         -1.09730       -1.36430        0.59110
H         -2.57530        1.08610       -0.61590
H          2.21470        0.46500        1.04630
