15
gdb 16736	5.6426	1.46175	1.27903	3.2924	70.38	-0.235	-0.0641	0.1709	928.2292	0.119872	-362.65316	-362.646548	-362.645604	-362.684059	25.023
O         -0.04110       -0.01130        0.06700
C          0.01680        1.19920        0.02470
C          1.26670        1.95320       -0.02680
C          1.37860        3.29210       -0.00690
C          2.80460        3.68820        0.00350
C          3.58270        3.19610        1.18400
N          3.61030        2.43770       -0.06190
C          2.64110        1.31610       -0.11120
H         -0.90580        1.82130        0.01330
H          0.55510        3.99680        0.01140
H          3.14480        4.55070       -0.56190
H          4.52250        3.67720        1.44110
H          3.01440        2.80710        2.02670
H          2.82880        0.60540        0.70060
H          2.76790        0.76710       -1.05120
