16
gdb 16829	3.63678	1.87848	1.40703	2.4114	64.51	-0.2384	-0.0114	0.227	871.5214	0.131392	-383.756413	-383.74941	-383.748466	-383.787547	27.209
O         -0.12720        1.47010        0.11030
C         -0.01030        0.06220       -0.02300
C          0.75140       -0.63200        1.12900
C          0.02780       -1.97180        1.34000
O          0.52350       -2.97990        1.77700
C         -1.36700       -1.82520        0.82400
C         -2.11500       -0.58150        1.29060
C         -1.40290       -0.55700       -0.01860
H          0.75160        1.85290        0.02230
H          0.47500       -0.18980       -0.97790
H          1.81160       -0.80110        0.93150
H          0.67560       -0.02770        2.04060
H         -1.92600       -2.72060        0.58450
H         -3.19620       -0.65520        1.27110
H         -1.72330       -0.00770        2.12250
H         -1.98170       -0.51660       -0.93340
