13
gdb 5159	6.2125	1.45952	1.18186	3.5362	64.51	-0.213	-0.0022	0.2108	944.0356	0.097477	-394.805018	-394.798165	-394.797221	-394.836808	24.542
N          0.34490        1.24010        0.00340
C          0.05850        0.00580        0.00150
N         -1.23450       -0.49240        0.01130
C         -2.42550        0.19480        0.02550
N         -2.68330        1.46160        0.03100
C         -4.07670        1.50850        0.04600
C         -4.57970        0.25710        0.04720
O         -3.51400       -0.61920        0.03480
H          1.35590        1.35950       -0.00540
H          0.77670       -0.82330       -0.00820
H         -1.33730       -1.49380        0.00970
H         -4.60370        2.44930        0.05400
H         -5.55990       -0.18490        0.05570
