19
gdb 19078	3.81201	1.75647	1.46456	1.6141	74.87	-0.2109	0.0639	0.2748	938.1676	0.165221	-327.830518	-327.822783	-327.821839	-327.862162	30.092
C         -0.07530        1.43830        0.00680
C          0.03730       -0.07450       -0.01480
C          0.69070       -0.65680       -1.23920
C          1.45210       -0.59960        0.06530
N          1.73550       -2.08940        0.06860
C          0.50780       -2.92620        0.03350
C         -0.71600       -2.84460        0.93920
C          0.89580       -2.18030       -1.19070
H          0.78770        1.90760       -0.47770
H         -0.97460        1.77280       -0.52150
H         -0.12750        1.81460        1.03380
H         -0.79050       -0.57540        0.46350
H          0.84390       -0.08510       -2.14550
H          2.27500        0.03500        0.37070
H          0.86010       -3.95470       -0.04960
H         -0.54190       -2.19440        1.79990
H         -1.60880       -2.49340        0.41480
H         -0.93880       -3.84220        1.32780
H          1.28380       -2.70520       -2.06040
