20
gdb 12019	4.37089	1.37717	1.23563	2.8519	75.51	-0.2308	0.0702	0.301	1064.4645	0.177488	-345.140788	-345.132269	-345.131325	-345.173367	32.27
C          0.20400        1.48460       -0.06450
C          0.01460       -0.00950        0.10760
C         -1.18750       -0.57440       -0.62460
N          1.25580       -0.81630        0.09680
C          0.47110       -0.71600        1.34110
C          1.15490       -0.04410        2.49800
C          2.40500       -0.63100        3.04420
N          2.44030        0.63660        2.29620
H          1.05790        1.85540        0.50310
H          0.35930        1.72910       -1.12140
H         -0.68870        2.02270        0.27360
H         -1.09610       -0.41070       -1.70490
H         -1.29360       -1.65070       -0.45210
H         -2.11300       -0.08890       -0.29630
H          1.09900       -1.71170       -0.35790
H         -0.12340       -1.58450        1.62620
H          0.48380        0.46800        3.18560
H          2.63020       -0.55270        4.10410
H          2.79360       -1.52190        2.55670
H          2.73770        0.42590        1.34290
