19
gdb 19533	3.67402	1.47096	1.4551	2.6477	70.34	-0.2207	0.0686	0.2893	971.2439	0.167341	-365.032209	-365.024518	-365.023574	-365.064708	29.125
O          0.20080        0.98380       -1.03810
C          0.20380       -0.12290       -0.14500
C         -1.23310       -0.62040       -0.08700
C         -1.65690       -2.04210       -0.20680
C         -0.62540       -3.14580       -0.01860
C          0.06890       -2.81530        1.32520
C         -0.93960       -1.89090        2.05310
N         -1.85730       -1.30720        1.06060
H          1.10210        1.31200       -1.10740
H          0.88940       -0.90450       -0.50180
H          0.54460        0.18390        0.85740
H         -1.89650        0.13080       -0.51060
H         -2.55310       -2.28440       -0.77270
H         -1.14370       -4.10870        0.03660
H          0.08380       -3.21430       -0.85020
H          0.28930       -3.71460        1.90620
H          1.02220       -2.30660        1.16190
H         -1.55910       -2.46800        2.74800
H         -0.45160       -1.10400        2.63730
