18
gdb 6922	5.09788	1.00657	0.94595	3.31	69.8	-0.2489	-0.0246	0.2243	1259.3278	0.149929	-384.940337	-384.931038	-384.930094	-384.975092	32.504
C          0.11110        1.50970       -0.18770
C         -0.07610        0.03640        0.10020
C         -1.26820       -0.59810       -0.58590
O          1.12170       -0.76240        0.06090
C          0.45420       -0.60610        1.32070
C          1.22270        0.08840        2.42650
C          2.37340       -0.77280        2.91620
O          2.57520       -1.04980        4.07010
H          1.01930        1.90670        0.26770
H          0.18490        1.66920       -1.26880
H         -0.74570        2.08690        0.17600
H         -1.18540       -0.48790       -1.67250
H         -1.32940       -1.66420       -0.35500
H         -2.20040       -0.11720       -0.27050
H         -0.06160       -1.51020        1.65300
H          1.65310        1.02550        2.05540
H          0.57000        0.31530        3.27510
H          3.04080       -1.14000        2.10590
