17
gdb 19938	3.66994	2.34627	1.90183	2.7279	66.2	-0.229	0.0678	0.2967	753.55	0.145598	-363.822652	-363.816647	-363.815703	-363.852567	24.5
C          0.36740        1.56320        0.27590
O          1.47180        1.42720       -0.64770
C          1.29490       -0.00210       -0.71180
C          2.26730       -0.81950        0.12470
N          2.49220       -0.23710        1.46460
C          1.55220       -1.35890        1.31900
C          0.09730       -0.90730        1.30530
C         -0.01520        0.07210        0.11960
H          0.70870        1.84850        1.27650
H         -0.37170        2.28690       -0.08800
H          1.24970       -0.35930       -1.74660
H          3.07740       -1.36210       -0.35160
H          3.38080       -0.57090        1.82840
H          1.81160       -2.32250        1.74790
H         -0.55450       -1.77360        1.14680
H         -0.19270       -0.44790        2.25650
H         -0.93570       -0.07030       -0.44810
