17
gdb 18376	3.02128	2.55095	1.72258	1.3332	73.95	-0.2175	0.0128	0.2303	800.3019	0.145359	-326.70137	-326.694895	-326.69395	-326.73155	26.412
C         -0.03900        1.50230        0.26450
C          1.30580        2.12570       -0.05990
C          2.47450        1.77410        0.48380
C          2.68930        0.73250        1.51400
N          1.65000        0.50540        2.53180
C          1.88780       -0.55930        1.54320
C          0.83860       -0.86240        0.54330
C         -0.00650        0.01060       -0.01220
H         -0.30300        1.68960        1.30910
H         -0.81230        1.96820       -0.35190
H          1.31390        2.89110       -0.83190
H          3.38000        2.25860        0.12640
H          3.72130        0.63250        1.84290
H          2.08170        0.25750        3.41710
H          2.44250       -1.42850        1.88940
H          0.79980       -1.90000        0.22020
H         -0.70400       -0.36120       -0.75850
