13
gdb 1904	6.26209	2.14472	1.89435	3.2317	54.64	-0.2432	-0.0269	0.2164	680.5569	0.100141	-344.433943	-344.427581	-344.426636	-344.464028	23.552
C          0.05270        1.53620        0.01910
C         -0.07510        0.05190        0.11650
C         -1.34350       -0.81750       -0.00610
C         -0.65460       -1.79100        0.99890
O         -1.03100       -2.73630        1.62350
C          0.59500       -0.91880        1.03090
O          0.98630       -0.77450       -0.35500
H          1.06510        1.85020        0.28480
H         -0.15320        1.87390       -1.00240
H         -0.65960        2.03060        0.68670
H         -2.24680       -0.39020        0.44030
H         -1.56030       -1.19270       -1.00810
H          1.36400       -0.79500        1.78470
