20
gdb 13482	3.0712	1.63036	1.13278	2.5805	75.68	-0.2366	-0.0175	0.2191	1092.0589	0.175457	-349.025714	-349.016848	-349.015904	-349.0592	32.783
C          0.00410        1.59880        0.11580
C          0.03400        0.06990       -0.01330
C          0.84960       -0.57390        1.11700
C         -1.38510       -0.50640       -0.05640
C         -2.34950       -0.14670       -1.23500
C         -2.73730       -1.64700       -1.39690
C         -1.56910       -1.98420       -0.45750
O         -0.95970       -2.98890       -0.22160
H          1.01890        2.00990        0.10290
H         -0.55670        2.06530       -0.70050
H         -0.46490        1.90130        1.05980
H          0.51890       -0.18150       -0.96780
H          0.41850       -0.32730        2.09510
H          0.86420       -1.66190        1.01890
H          1.88160       -0.20790        1.10890
H         -1.88040       -0.33660        0.91050
H         -3.16340        0.54030       -1.00170
H         -1.80580        0.23330       -2.10390
H         -3.70180       -1.89980       -0.94410
H         -2.69680       -2.09120       -2.39450
