14
gdb 20602	3.39047	2.02449	1.28405	2.2083	60.62	-0.2228	0.006	0.2288	896.1598	0.106965	-415.856551	-415.848537	-415.847593	-415.889356	28.396
C          0.11860        1.51100        0.03690
C         -0.03750        0.03510        0.03750
C         -1.13630       -0.76560       -0.06230
N         -2.48660       -0.38060       -0.22150
C         -0.57640       -2.07690       -0.00530
O         -1.29920       -3.20800       -0.08940
N          0.72570       -2.07610        0.11720
O          1.07420       -0.71880        0.16410
H          0.93080        1.81440       -0.63050
H         -0.81380        1.96760       -0.30360
H          0.34990        1.89670        1.03650
H         -2.92360       -0.14790        0.66460
H         -3.02450       -1.13640       -0.63090
H         -0.68450       -3.95310       -0.06270
