16
gdb 832	6.81068	1.91942	1.52577	1.7549	68.34	-0.1894	0.0527	0.2421	823.6177	0.137355	-288.690999	-288.683565	-288.682621	-288.722372	26.956
C          0.00390        1.51670        0.07070
C          0.01130        0.02740       -0.03830
C          0.00910       -0.80040       -1.13860
C          0.01910       -2.15610       -0.68650
C          0.02080       -3.39110       -1.53620
C          0.02710       -2.10710        0.68770
N          0.02260       -0.78500        1.07060
H          0.88870        1.90030        0.59480
H         -0.00480        1.96090       -0.92720
H         -0.87830        1.89080        0.60600
H          0.00130       -0.46850       -2.16700
H          0.89730       -3.43280       -2.19410
H          0.03010       -4.29490       -0.91940
H         -0.86380       -3.44310       -2.18250
H          0.03600       -2.90000        1.41920
H          0.02510       -0.45940        2.02120
