12
gdb 5179	7.54259	1.25057	1.11834	3.6474	57.93	-0.2348	-0.0143	0.2206	983.0647	0.083633	-418.51665	-418.509908	-418.508964	-418.548982	23.451
O         -0.10680        0.04780        0.10090
C          0.07390        1.19610       -0.13840
O          0.91220        1.96810        0.63200
C          0.99550        3.28700        0.33130
C          2.03570        4.05820       -0.06860
C          1.51100        5.39370       -0.13120
C          0.20580        5.31410        0.22940
O         -0.12780        4.02030        0.52280
H         -0.37520        1.77040       -0.96570
H          3.03560        3.72070       -0.28450
H          2.04440        6.28800       -0.41170
H         -0.59180        6.03070        0.32490
