18
gdb 2707	7.53656	0.96634	0.92857	3.688	66.14	-0.249	0.0345	0.2835	1271.4557	0.159622	-327.013034	-327.004349	-327.003405	-327.047326	29.588
C          0.22260        1.51910       -0.09460
C         -0.06370        0.02280        0.05640
C          0.65940       -0.60740        1.25120
C          0.36600       -2.10480        1.39440
N          1.03710       -2.71200        2.53370
C          2.06420       -3.59470        2.41190
O          2.51650       -4.00870        1.36530
H          1.29320        1.70430       -0.23460
H         -0.30370        1.94050       -0.95650
H         -0.09520        2.07530        0.79440
H         -1.14540       -0.13540        0.16120
H          0.23190       -0.50230       -0.86110
H          1.74280       -0.46820        1.14960
H          0.36510       -0.08680        2.17370
H         -0.71600       -2.26950        1.48090
H          0.71470       -2.64960        0.51390
H          0.77440       -2.42160        3.46230
H          2.45020       -3.90980        3.40230
