10
gdb 4254	4.16569	2.14072	1.41405	1.5438	52.04	-0.3025	-0.0744	0.2281	767.6896	0.061291	-450.648187	-450.642158	-450.641214	-450.679023	21.307
N         -0.07270        1.29730        0.27030
C         -0.08850        0.07420       -0.00930
O          1.09000       -0.55210       -0.49440
C          1.16540       -1.85510       -0.81990
O          2.14870       -2.37410       -1.22400
O          0.00070       -2.57900       -0.65350
C         -1.10730       -1.94490       -0.18690
N         -1.21170       -0.72360        0.12770
H          0.84880        1.69900        0.09860
H         -1.94040       -2.63580       -0.10820
