11
gdb 8985	7.26281	0.9363	0.83368	0.2528	54.1	-0.2883	-0.1061	0.1822	1222.7224	0.069586	-434.562648	-434.554664	-434.55372	-434.596708	25.642
O         -0.14500        0.10120        0.00160
C          0.00460        1.28810        0.00630
C          1.40840        1.91580       -0.00180
O          2.44550        1.31750       -0.01310
O          1.28710        3.26240        0.00540
C          2.53670        3.96820       -0.00140
C          2.25020        5.39960        0.00930
N          2.05850        6.53770        0.01740
H         -0.82800        2.01750        0.01650
H          3.13000        3.68950        0.87550
H          3.11470        3.69970       -0.89150
