17
gdb 16312	3.15171	1.94129	1.39184	2.4851	69.45	-0.2581	0.0216	0.2796	924.4461	0.141984	-363.839841	-363.832191	-363.831247	-363.871906	28.767
C         -0.24400        1.53400       -0.00690
C          0.06710        0.03330        0.08090
C          0.76960       -0.47600       -1.14610
C          0.06240       -0.93380       -2.43350
C          1.00790       -1.84690       -1.74080
O          2.36800       -1.49380       -2.11600
C          2.20820       -0.25200       -1.49940
N          3.04070        0.65820       -1.27740
H          0.67700        2.10710       -0.14340
H         -0.90520        1.74950       -0.85250
H         -0.73590        1.88300        0.90590
H          0.69520       -0.16050        0.95860
H         -0.85880       -0.53660        0.22550
H         -0.99450       -1.14370       -2.29380
H          0.33070       -0.52120       -3.40110
H          0.83940       -2.84760       -1.36730
H          3.96330        0.41670       -1.64310
