20
gdb 6548	3.04666	1.63741	1.4636	2.93	70.59	-0.2482	0.0633	0.3115	979.3098	0.174892	-386.1248	-386.115702	-386.114758	-386.157562	35.337
C         -0.00970        1.57750       -0.02040
C          0.03470        0.04820        0.05830
C          0.65640       -0.38470        1.39580
O         -1.33260       -0.37120        0.00560
C          0.76930       -0.49400       -1.18180
C          2.07170       -1.27330       -1.13490
C          0.78270       -1.95820       -1.50680
O          0.14410       -2.80570       -0.58420
H          1.00120        1.99570       -0.03550
H         -0.53420        1.89290       -0.92690
H         -0.54570        1.98450        0.84150
H          0.03800        0.00240        2.21050
H          0.69160       -1.47320        1.48090
H          1.67090        0.00830        1.51710
H         -1.32130       -1.33620       -0.00490
H          0.64110        0.14510       -2.05100
H          2.81470       -1.10230       -1.90670
H          2.48120       -1.50360       -0.15800
H          0.63400       -2.24780       -2.54620
H          0.62620       -3.63750       -0.54020
