11
gdb 21883	7.27624	1.39066	1.16752	3.7219	57.22	-0.2645	-0.0649	0.1996	913.2607	0.073385	-430.733716	-430.727388	-430.726444	-430.764376	22.736
O          0.10680        1.31690        0.02890
C          0.07000       -0.01960        0.03720
N          0.10700       -0.76980       -1.04260
N          0.04590       -2.02890       -0.53850
C          0.06160       -3.14110       -1.40350
O          0.01130       -4.27770       -1.03900
N         -0.02730       -2.10720        0.79710
C         -0.01390       -0.84960        1.19040
H          0.16370        1.61230       -0.88910
H          0.12660       -2.78930       -2.44540
H         -0.06170       -0.57350        2.23150
