14
gdb 794	6.11744	1.42368	1.28103	2.0372	58.32	-0.2459	-0.0382	0.2077	906.7981	0.110176	-361.684892	-361.676647	-361.675703	-361.718785	27.474
C         -0.15030        1.56350       -0.03540
C         -0.02690        0.06500       -0.03780
C         -0.04940       -0.66810        1.28480
C          1.26360       -0.43670        2.01970
O          1.38880        0.26800        2.98680
N          0.11620       -0.66650       -1.07730
O          0.13240        0.09110       -2.25510
H          0.44510        2.00260       -0.83790
H         -1.19330        1.85730       -0.20500
H          0.16120        1.97590        0.92720
H         -0.86640       -0.30470        1.91560
H         -0.16580       -1.73880        1.09250
H          2.13470       -0.95800        1.56350
H          0.26250       -0.58470       -2.92880
