14
gdb 6312	4.55161	1.07846	1.0371	5.3863	59.03	-0.267	0.0084	0.2754	1121.2604	0.105707	-415.897898	-415.888972	-415.888028	-415.932165	30.558
N          0.08530        1.21370        0.41840
C          0.09040       -0.03640       -0.11660
O          1.06910       -0.53120       -0.63850
C         -1.24960       -0.77730       -0.06330
C         -1.00080       -2.27040        0.20330
O         -0.53680       -2.51780        1.51650
C         -2.20810       -3.06480       -0.09460
N         -3.17140       -3.67180       -0.29260
H          0.93900        1.74750        0.39280
H         -0.71510        1.60150        0.88490
H         -1.92960       -0.36680        0.69110
H         -1.73410       -0.65540       -1.03900
H         -0.18980       -2.58570       -0.46080
H         -1.26510       -2.37090        2.13100
