16
gdb 10510	2.77015	1.74182	1.25324	3.4346	61.9	-0.2693	0.0054	0.2747	977.8848	0.128337	-420.875613	-420.867143	-420.866198	-420.908865	30.124
O          0.40330        0.92580        0.59840
C         -0.23730        0.33500       -0.52210
C         -1.42840       -0.50690       -0.11810
C         -1.94720       -1.56530       -1.03980
C         -1.27430       -1.95700        0.25860
O         -2.41990        0.25900        0.54650
C         -2.26050        0.44830        1.88040
O         -2.96180        1.19130        2.49950
H          0.00520        1.78730        0.75370
H         -0.56070        1.09730       -1.24350
H          0.49930       -0.30460       -1.02060
H         -3.02400       -1.67160       -1.09630
H         -1.42160       -1.73140       -1.97370
H         -0.27960       -2.38740        0.22670
H         -1.90880       -2.34430        1.04740
H         -1.44070       -0.15390        2.30360
