17
gdb 17856	4.99353	1.62214	1.52636	2.2675	67.61	-0.237	0.0678	0.3048	875.5635	0.143299	-363.784492	-363.777709	-363.776765	-363.815511	25.946
C         -0.06800        1.49040       -0.12620
C          1.47750        1.46590        0.01130
N          1.50700       -0.02880        0.22260
C         -0.00900       -0.02910       -0.00480
C          0.91950       -0.61150       -0.98100
C          1.18790       -0.30830       -2.45430
O          1.27190       -1.72070       -2.74070
C          1.10100       -2.07830       -1.34960
H         -0.55650        1.96980        0.72360
H         -0.49920        1.89070       -1.04920
H          2.06330        1.79810       -0.85210
H          1.85010        1.97150        0.90330
H         -0.67410       -0.64480        0.59410
H          0.38000        0.17990       -3.01400
H          2.13450        0.20930       -2.66060
H          1.99760       -2.54460       -0.92390
H          0.23550       -2.73460       -1.19750
