13
gdb 14223	4.9234	1.85495	1.70349	3.7703	58.04	-0.2424	-0.0025	0.2399	751.7763	0.095538	-398.539154	-398.532975	-398.532031	-398.569253	24.188
O         -0.08200        1.32210       -0.00380
C          0.03860       -0.03910       -0.02650
C          0.83860       -0.93910       -0.96740
N         -0.06660       -2.07880       -0.50660
C         -1.05330       -1.02350        0.00180
C         -0.22100       -0.91950        1.27650
C          0.39550       -2.21650        0.91320
O          0.99940       -3.10200        1.42810
H          0.71330        1.70170        0.38800
H          0.65650       -0.71120       -2.02070
H          1.90480       -1.11400       -0.78920
H         -2.12130       -1.03020       -0.15170
H         -0.45270       -0.44610        2.22140
