18
gdb 8688	2.64748	1.65776	1.33495	3.444	67.94	-0.2442	0.0223	0.2665	1009.214	0.152159	-381.11767	-381.108099	-381.107155	-381.151556	34.228
C         -0.00680        1.46320       -0.11670
N          0.03340        0.00940        0.02900
C          0.66730       -0.51100        1.24330
C          0.02790       -0.06730        2.57770
C          0.64450       -2.06480        1.13200
O          1.30270       -2.70940        2.19600
C          2.09160       -0.11370        1.23920
N          3.21820        0.14320        1.27130
H          1.01530        1.85240       -0.14880
H         -0.48310        1.70320       -1.07100
H         -0.54970        1.99430        0.68050
H         -0.90820       -0.36730       -0.01740
H         -1.03880       -0.31580        2.56110
H          0.49280       -0.59870        3.41050
H          0.13390        1.00700        2.74120
H         -0.40190       -2.38800        1.17490
H          1.04930       -2.34170        0.15050
H          2.24940       -2.55270        2.10060
