16
gdb 5386	4.85184	1.53767	1.26724	0.6077	73.36	-0.2433	-0.0467	0.1966	971.3665	0.13284	-342.841304	-342.83421	-342.833266	-342.873311	26.001
C         -0.23200        1.53100        0.09490
C          0.09290        0.03400       -0.03460
C          0.76940       -0.51330        1.19640
N          2.00890       -0.08090        1.46490
C          2.58980       -0.56000        2.56390
C          1.95090       -1.46820        3.40440
N          0.71800       -1.90860        3.14970
C          0.14020       -1.42740        2.04920
H          0.67930        2.09860        0.30120
H         -0.67690        1.91270       -0.82860
H         -0.93730        1.71260        0.91230
H         -0.82150       -0.53560       -0.23220
H          0.76020       -0.11660       -0.89070
H          3.59690       -0.21240        2.78180
H          2.44180       -1.84840        4.29640
H         -0.86490       -1.78090        1.82970
