16
gdb 4768	4.60365	1.40941	1.09975	1.714	66.83	-0.2314	0.0111	0.2424	1066.6708	0.131598	-379.957032	-379.948955	-379.94801	-379.990221	28.505
C         -0.36460        1.38210        0.01590
C         -0.06290       -0.07590       -0.05960
C          0.64630       -0.76990       -0.97980
O          0.64560       -2.09400       -0.61940
C         -0.07910       -2.13140        0.52550
C         -0.27380       -3.46440        1.19280
N         -1.06270       -3.42830        2.41610
N         -0.52290       -0.97600        0.90590
H          0.02830        1.81530        0.94190
H          0.07510        1.91930       -0.82830
H         -1.44550        1.55820        0.01100
H          1.17770       -0.51600       -1.88070
H         -0.74580       -4.15120        0.47890
H          0.71080       -3.89730        1.41080
H         -0.62740       -2.77920        3.06630
H         -1.96720       -3.01290        2.20910
