18
gdb 14179	3.69978	1.72561	1.68063	1.263	67.28	-0.2437	0.0769	0.3206	866.7114	0.153976	-384.928108	-384.920507	-384.919562	-384.959385	29.598
C         -0.04470        1.59290        0.02230
C          0.04990        0.08430        0.03730
O         -1.15650       -0.55870       -0.30870
C          1.29610       -0.68640       -0.35590
C          2.64380        0.00810       -0.30090
O          2.70850        0.66820        0.96310
C          1.86900       -0.01520        1.89430
C          0.79190       -0.70450        1.07970
H          0.88690        2.06050        0.34430
H         -0.27260        1.95060       -0.99010
H         -0.85530        1.92140        0.68080
H         -1.36170       -0.32200       -1.22030
H          1.17320       -1.55030       -0.99870
H          3.44860       -0.73800       -0.40000
H          2.79640        0.77480       -1.06890
H          2.43870       -0.76750        2.46250
H          1.49760        0.73520        2.60090
H          0.29700       -1.57670        1.48940
