19
gdb 14775	2.96077	1.14986	0.87773	3.8005	71.04	-0.2534	0.0334	0.2868	1334.4182	0.163657	-402.188182	-402.178607	-402.177663	-402.223889	32.531
C         -0.62860        1.42050       -0.37740
C         -0.35410       -0.07130       -0.30170
O         -1.57050       -0.74010       -0.02110
C         -1.44380       -2.14070        0.04890
C         -2.83300       -2.74310        0.16960
O         -3.57470       -2.61940       -1.03810
C         -4.23590       -1.45860       -1.23610
N         -4.80000       -1.24330       -2.34450
H          0.29450        1.96620       -0.59320
H         -1.35260        1.63630       -1.16810
H         -1.03410        1.78590        0.57040
H          0.06560       -0.43830       -1.25240
H          0.38650       -0.29110        0.48550
H         -0.95230       -2.53760       -0.85360
H         -0.83870       -2.44140        0.92200
H         -2.75530       -3.81540        0.36790
H         -3.36910       -2.27260        1.00430
H         -4.22440       -0.79490       -0.36400
H         -5.27560       -0.34370       -2.31680
