20
gdb 9399	4.71628	0.75254	0.68231	2.8374	72.82	-0.246	-0.0191	0.2269	1622.4382	0.174089	-386.148748	-386.138482	-386.137538	-386.185307	34.845
C         -0.07970        1.57230        0.12440
C         -0.01350        0.03930        0.01790
C          0.68620       -0.45030       -1.27080
C         -0.04000       -0.06530       -2.56410
C          0.61820       -0.66560       -3.80060
O         -0.11050       -0.22560       -4.93580
C          0.74570       -0.50900        1.21040
O          0.32520       -1.31960        1.99430
H          0.92460        2.01170        0.10770
H         -0.64640        2.00170       -0.70500
H         -0.56660        1.88050        1.05470
H         -1.02310       -0.38380        0.06330
H          1.71330       -0.05930       -1.29350
H          0.77450       -1.54360       -1.22230
H         -1.08260       -0.40330       -2.52630
H         -0.06590        1.02230       -2.69030
H          1.67200       -0.34500       -3.85350
H          0.61730       -1.76550       -3.72600
H          0.29150       -0.60980       -5.72020
H          1.77880       -0.09470        1.31470
