19
gdb 14424	3.88661	1.89419	1.6811	1.6097	75.01	-0.229	0.097	0.326	876.7714	0.166025	-327.872379	-327.864954	-327.86401	-327.903526	29.194
C         -0.04450        1.55830        0.01250
C          0.07730        0.05090       -0.12160
C          0.78190       -0.63140       -1.31410
C          2.21430       -0.03920       -1.29090
C          2.34370       -0.70490        0.07610
N          1.02170       -0.65150        0.81590
C          1.27190       -1.68350       -0.23010
C          1.11230       -3.15420       -0.05110
H          0.91680        2.06630       -0.09630
H         -0.73100        1.95790       -0.74230
H         -0.44300        1.81180        1.00020
H         -0.90340       -0.41080        0.04040
H          0.27320       -0.82900       -2.25700
H          2.85960       -0.54100       -2.01720
H          2.33600        1.04410       -1.38590
H          3.22180       -0.82220        0.69810
H          0.05600       -3.44640       -0.05330
H          1.61610       -3.71000       -0.84970
H          1.54370       -3.46200        0.90640
