19
gdb 13601	4.19125	1.22432	1.14492	3.2941	74.45	-0.2425	0.0328	0.2753	1145.8471	0.16501	-365.091907	-365.082754	-365.08181	-365.125993	32.716
C          0.03090        1.43890        0.13850
N          0.13560        0.00320       -0.02250
C          0.13340       -0.60450       -1.24720
O          0.03390        0.02410       -2.29190
C          0.25980       -2.09500       -1.19440
C         -0.24410       -2.88930       -2.38290
C          1.22860       -2.82690       -2.12640
C          2.17410       -2.10160       -3.05770
H         -0.09350        1.86670       -0.85690
H         -0.83320        1.70890        0.75610
H          0.93310        1.86050        0.59710
H          0.24020       -0.56930        0.79800
H          0.13030       -2.54000       -0.21210
H         -0.78320       -3.80960       -2.18780
H         -0.62820       -2.28520       -3.19780
H          1.65360       -3.71670       -1.66750
H          1.71660       -1.19180       -3.44930
H          3.10010       -1.82430       -2.54160
H          2.44460       -2.74890       -3.89930
