15
gdb 19038	4.24033	2.19189	1.8817	3.9927	63.88	-0.2345	0.0233	0.2578	730.2724	0.122245	-362.671977	-362.666324	-362.66538	-362.701507	23.354
O         -0.02070        0.01460        0.17370
C         -0.01670        1.21340        0.01150
N         -1.13220        2.02140       -0.17630
C         -0.76430        3.42190       -0.01890
C         -0.20560        3.70840        1.42000
C          1.18240        3.37840        0.87690
C          0.70020        3.48670       -0.54920
C          1.16290        2.14680       -0.05380
H         -2.01580        1.67900        0.17420
H         -1.51350        4.09970       -0.42320
H         -0.27770        4.77040        1.67050
H         -0.61760        3.10650        2.23700
H          2.12940        3.69280        1.29740
H          1.08330        4.01640       -1.41050
H          2.12650        1.74480       -0.33640
