17
gdb 8518	4.3701	1.84708	1.61983	2.0764	67.91	-0.225	0.0683	0.2933	842.1404	0.14149	-363.798328	-363.79095	-363.790006	-363.829475	28.721
C         -0.10710        1.47880       -0.02400
C         -0.00170       -0.01210       -0.07430
C          0.89470       -0.86370       -0.97600
C          0.08720       -2.07470       -0.42770
O         -0.13060       -3.22130       -1.17210
C          0.46930       -2.07500        1.06460
N         -0.25380       -0.76810        1.21480
C         -1.04810       -1.06220       -0.01480
H          0.83200        1.92600        0.32120
H         -0.33450        1.89050       -1.01310
H         -0.89710        1.77970        0.66940
H          0.66580       -0.68180       -2.02980
H          1.97960       -0.85250       -0.81390
H          0.71820       -3.55430       -1.48390
H         -0.06630       -2.83590        1.63810
H          1.53070       -2.06440        1.34250
H         -2.12900       -1.06350       -0.06700
