14
gdb 13740	3.43749	1.69803	1.31972	5.4619	63.67	-0.2669	-0.0131	0.2538	923.7769	0.10574	-378.730228	-378.722118	-378.721174	-378.763403	27.839
C         -0.06080        1.33500       -0.07360
C         -0.07080       -0.17800       -0.02250
O          0.84570       -0.88260       -0.36290
N         -1.23820       -0.71770        0.54980
C         -2.59740       -0.55290        0.10160
C         -1.91660       -1.90660        0.08910
C         -1.59210       -2.49950       -1.18960
N         -1.38310       -3.00010       -2.20990
H          0.95550        1.67590       -0.26870
H         -0.71220        1.68690       -0.88150
H         -0.43260        1.76290        0.86110
H         -3.34140       -0.34370        0.86540
H         -2.77380       -0.09050       -0.86670
H         -2.16650       -2.62990        0.86050
