13
gdb 20722	5.79956	1.61506	1.27324	4.6156	63.71	-0.2532	-0.0839	0.1694	895.0405	0.097018	-394.817603	-394.810839	-394.809895	-394.848827	24.547
C         -0.02290        1.53310       -0.00250
C         -0.00100        0.03290       -0.02220
N         -0.05540       -0.58420       -1.17060
N         -0.03220       -1.91590       -1.12040
C          0.04390       -2.73580        0.01810
O          0.05610       -3.93880       -0.09240
N          0.10040       -2.04020        1.23140
C          0.07800       -0.74650        1.18670
H          0.88140        1.93610        0.46730
H         -0.08730        1.91560       -1.02210
H         -0.87920        1.90920        0.56850
H         -0.07470       -2.38680       -2.01470
H          0.12280       -0.21750        2.14100
