16
gdb 9940	3.16338	1.53152	1.42526	4.0566	66.96	-0.2274	0.02	0.2474	945.5549	0.131565	-376.076337	-376.067468	-376.066524	-376.109339	32.224
N          0.18810        1.40060       -0.00700
C          0.06420       -0.02110        0.04050
C         -0.43260       -0.69760        1.28510
N         -0.90930        0.01730        2.43810
C         -1.32630       -0.72900        0.03540
N         -2.46960        0.14850        0.05740
C         -1.45050       -1.97220       -0.68130
N         -1.56010       -2.95780       -1.28080
H          0.20410        1.73150       -0.96650
H         -0.60290        1.84060        0.45040
H          0.83700       -0.54040       -0.51700
H          0.03830       -1.64720        1.52470
H         -0.17030        0.60010        2.82030
H         -1.67530        0.62860        2.17230
H         -2.69640        0.46900       -0.87910
H         -3.28720       -0.33500        0.41710
