16
gdb 8653	2.50637	1.72508	1.38341	3.3419	66.79	-0.2455	-0.0223	0.2233	966.0126	0.125953	-383.704937	-383.695342	-383.694398	-383.739373	33.447
C         -0.03400        1.56020        0.00240
C          0.01040        0.01100       -0.02600
C          0.73670       -0.52340        1.23660
O          0.06740       -0.02320        2.38170
C         -1.44540       -0.49010        0.00050
O         -1.97720       -1.12480       -0.86880
C          0.71840       -0.47060       -1.20710
C          1.33500       -0.85830       -2.16210
H          0.98420        1.95840        0.02080
H         -0.53820        1.94520       -0.88720
H         -0.55760        1.90650        0.89580
H          0.73460       -1.62250        1.21200
H          1.78300       -0.18710        1.19720
H          0.48340       -0.39560        3.16420
H         -1.98290       -0.19250        0.92400
H          1.86090       -1.20670       -3.01650
