16
gdb 11849	7.15462	1.05874	1.02832	2.0578	66.74	-0.2542	-0.0277	0.2265	1121.4801	0.129096	-383.714572	-383.707053	-383.706109	-383.747011	27.499
O          0.95440       -0.26650       -0.28150
C          0.42940        0.79300       -0.05740
C          1.14370        2.10790        0.07240
C          0.58280        3.28750       -0.79420
C          0.69650        4.17190        0.44740
C          1.33450        5.48080        0.58470
O         -0.08780        5.31160        0.71310
C          0.81730        2.94780        1.35510
H         -0.67750        0.87100        0.07560
H          2.21460        1.95580       -0.06850
H          1.14670        3.56190       -1.68750
H         -0.46570        3.12500       -1.06760
H          1.85750        5.73640        1.50540
H          1.66020        6.02220       -0.30260
H         -0.15500        2.67490        1.78010
H          1.56540        2.95540        2.14980
