10
gdb 4224	5.19387	1.7641	1.73174	1.6957	41.35	-0.282	0.0329	0.3148	708.3077	0.06184	-453.654335	-453.64765	-453.646706	-453.685404	23.456
F          0.00300        0.06910       -0.08040
C         -0.02850        1.40300        0.00800
F          1.22830        1.85050       -0.08210
F         -0.70570        1.86780       -1.05300
C         -0.70360        1.86860        1.29500
C         -0.02460        1.40280        2.49350
C          0.53190        1.02130        3.48590
H         -0.73810        2.96290        1.26250
H         -1.73790        1.50940        1.26390
H          1.02740        0.68140        4.36170
