15
gdb 966	3.62755	3.21941	1.7398	1.0524	63.33	-0.1911	0.0569	0.248	714.7866	0.126567	-304.735224	-304.727928	-304.726984	-304.76661	26.48
C          0.08360        1.51870        0.01710
C          0.04730        0.02060        0.01900
C         -0.04130       -0.79310       -1.09550
N         -0.12120       -0.54350       -2.48820
N         -0.04630       -2.09960       -0.66280
C          0.03690       -2.14140        0.70250
C          0.09640       -0.84330        1.15390
H          1.00360        1.90820        0.46950
H          0.03040        1.90960       -1.00430
H         -0.75410        1.95100        0.57750
H         -0.94080        0.00450       -2.72840
H          0.68860       -0.03600       -2.82920
H         -0.10420       -2.88310       -1.28990
H          0.04700       -3.07890        1.23460
H          0.16760       -0.53760        2.18740
