18
gdb 6194	3.79186	1.54152	1.46017	4.4288	67.17	-0.2624	0.0159	0.2783	946.6388	0.153621	-385.000006	-384.99209	-384.991146	-385.031945	30.085
C          0.14920        1.46760        0.09550
C         -0.05750       -0.05460        0.01020
C         -1.54400       -0.38960       -0.13350
C          0.77990       -0.63630       -1.15320
O          2.09580       -0.86970       -0.62910
C          2.05790       -0.97930        0.72990
O          3.03250       -1.22120        1.37880
C          0.62570       -0.75270        1.20080
H          1.21190        1.72410        0.15670
H         -0.26680        1.96780       -0.78540
H         -0.34720        1.87800        0.98070
H         -1.95900        0.04690       -1.04910
H         -1.70860       -1.47150       -0.17170
H         -2.11850        0.00820        0.70930
H          0.36900       -1.58880       -1.51080
H          0.87440        0.04590       -2.00190
H          0.61690       -0.18500        2.13290
H          0.17990       -1.73370        1.40530
