16
gdb 4786	5.56995	1.24757	1.09273	2.0495	68.29	-0.1752	0.0519	0.2271	1078.1031	0.131249	-379.936893	-379.9286	-379.927656	-379.969975	30.202
C          0.24420        1.02740        0.56970
N         -0.41950        0.14440       -0.39880
C          0.43400       -0.50330       -1.31260
C          0.87790       -0.16970       -2.57970
C          1.70950       -1.23880       -3.02110
O          2.36970       -1.34760       -4.21340
C          1.76470       -2.18340       -2.02410
N          0.97840       -1.71410       -0.98730
H          0.93690        0.44040        1.17920
H          0.81530        1.84510        0.10380
H         -0.50900        1.45800        1.23630
H         -1.13580        0.65570       -0.89940
H          0.64890        0.74070       -3.11450
H          2.18430       -0.56060       -4.73260
H          2.28820       -3.12190       -1.96970
H          0.73420       -2.22360       -0.15650
