15
gdb 14710	5.38053	0.83662	0.81017	2.9896	62.65	-0.2736	-0.0353	0.2383	1383.0747	0.116685	-436.947596	-436.938786	-436.937842	-436.982412	29.348
O         -0.44020        1.40670       -0.40220
C          0.00070        0.08940       -0.13920
C         -1.14850       -0.92280       -0.17770
N         -1.71370       -0.96600       -1.51690
C         -2.92640       -0.66460       -1.65160
O         -3.57490       -0.64560       -2.85480
C         -3.03970       -1.34490       -3.91530
O         -3.49230       -1.22890       -5.00860
H         -0.74750        1.42710       -1.31480
H          0.78350       -0.22550       -0.84480
H          0.43530        0.10120        0.86530
H         -0.75490       -1.91730        0.06600
H         -1.89730       -0.65300        0.58330
H         -3.61630       -0.36740       -0.85620
H         -2.20730       -1.99200       -3.61100
