19
gdb 3366	3.78397	2.47268	2.39621	0.1055	69.99	-0.2561	0.0816	0.3377	715.1205	0.173954	-273.788787	-273.781858	-273.780913	-273.819526	26.535
C          0.04310        1.65730        0.04550
C          0.08830        0.14340        0.04940
C          1.27240       -0.71290       -0.34510
C          2.67840       -0.12510       -0.36100
C          2.92420        0.47620        1.04950
C          1.85250       -0.14370        1.98700
C          0.76900       -0.72430        1.08610
H          0.97430        2.11980        0.37640
H         -0.16870        2.03370       -0.96190
H         -0.75420        2.02050        0.70400
H         -0.85470       -0.28560       -0.28570
H          1.08070       -1.54990       -1.00910
H          3.39070       -0.93350       -0.56180
H          2.82450        0.62100       -1.15050
H          3.93740        0.26560        1.40420
H          2.83440        1.56520        1.02660
H          2.28630       -0.95840        2.57800
H          1.46850        0.59040        2.70450
H          0.20800       -1.56950        1.47200
