12
gdb 3308	6.2261	2.22005	1.98349	4.3914	53.83	-0.2649	-0.0032	0.2617	644.3032	0.090567	-323.334482	-323.328732	-323.327787	-323.364076	21.212
N         -0.04610       -1.16260       -0.10240
C         -0.00930       -0.01080       -0.01790
C          0.04970        1.45170        0.06890
O         -0.14430        1.95590        1.41480
C          1.08610        2.69290        1.32450
C          2.24650        1.76720        1.17840
C          1.41880        2.12930       -0.03770
H         -0.69580        1.88580       -0.60660
H          1.09940        3.69580        1.73150
H          3.22480        2.23680        1.19760
H          2.19980        0.77040        1.60690
H          1.81570        2.58690       -0.93210
