15
gdb 21103	3.41368	2.07274	1.31092	3.4295	64.29	-0.2169	0.0049	0.2217	897.7236	0.118948	-395.989688	-395.98166	-395.980716	-396.022155	28.26
C         -0.03100        1.42990       -0.02120
N          0.01090       -0.01260        0.07590
N          0.01190       -0.75590       -1.04100
N          0.05390       -2.01410       -0.67190
C          0.07800       -2.06320        0.67650
O          0.12210       -3.22290        1.36610
C          0.05140       -0.78770        1.19980
C          0.06100       -0.27900        2.59880
H          0.85460        1.87710        0.44040
H         -0.05380        1.67900       -1.08190
H         -0.92590        1.82740        0.46700
H          0.13110       -3.93280        0.71200
H          0.93040        0.35720        2.80320
H         -0.83710        0.30420        2.83470
H          0.09850       -1.12610        3.28700
