17
gdb 18797	3.46511	2.37749	2.11068	2.396	66.38	-0.2027	0.0678	0.2705	730.4483	0.144583	-363.791858	-363.785627	-363.784683	-363.821845	25.426
O         -0.08410        1.46200       -0.00520
C         -0.01520        0.05670        0.04480
C          0.32230       -0.65550        1.38900
C         -0.49320       -0.08700        2.56250
N         -1.73570       -0.81970        2.13530
C         -2.38960       -0.09360        0.99080
C         -1.38280       -0.65670       -0.02810
C         -0.89610       -1.59590        1.12360
H          0.80950        1.81620        0.04660
H          0.64060       -0.34080       -0.74400
H          1.35390       -0.97180        1.55350
H         -0.15920       -0.46490        3.53420
H         -0.59690        1.00150        2.61870
H         -3.39960       -0.48790        0.83980
H         -2.44320        0.99340        1.10020
H         -1.73760       -0.96940       -1.01050
H         -0.90370       -2.68470        1.13320
