17
gdb 20262	4.02984	2.74737	2.48016	1.6653	69.15	-0.235	0.1025	0.3375	658.0407	0.147153	-326.697403	-326.692455	-326.69151	-326.72604	22.096
C         -0.06730        1.55790        0.04350
C          1.48660        1.45660        0.00120
C          1.82350        0.70420        1.30650
C          0.76830       -0.34680        1.29750
C          0.02840        0.00400       -0.01110
C          1.31360        0.17950       -0.88630
C          2.32790       -0.84290       -0.40950
N          2.18360       -0.71040        1.05130
H         -0.52910        2.01400        0.92420
H         -0.49190        1.99190       -0.86670
H          2.12390        2.29230       -0.28630
H          2.23430        1.18510        2.18490
H          0.27840       -0.76320        2.16830
H         -0.80740       -0.62750       -0.31120
H          1.16260        0.34010       -1.95210
H          2.09370       -1.86790       -0.71660
H          3.35650       -0.61020       -0.70590
