16
gdb 10585	2.98434	1.72394	1.32707	2.1291	73.1	-0.2505	-0.0314	0.2191	963.0695	0.127484	-346.574479	-346.565961	-346.565017	-346.607032	31.313
C          0.07120        1.52720        0.05010
C          0.10770        0.01740        0.04080
C          1.35140       -0.75070       -0.20500
C          0.74340       -0.80970        1.20430
C          1.47550       -0.07570        2.28230
O          2.27800        0.80640        2.08950
C          0.05380       -1.99590        1.62400
C         -0.51740       -2.98490        2.00250
H          0.99120        1.95030        0.45540
H         -0.05280        1.89290       -0.97530
H         -0.77250        1.89890        0.64050
H         -0.80620       -0.45510       -0.30780
H          1.31120       -1.66710       -0.78120
H          2.28180       -0.19450       -0.25540
H          1.22030       -0.41130        3.30880
H         -1.02120       -3.86080        2.32860
