18
gdb 7505	2.99977	1.35587	1.07174	1.8173	78.06	-0.2347	0.046	0.2807	1173.603	0.150735	-347.76935	-347.759688	-347.758744	-347.804172	34.08
C         -0.14490        1.41770        0.02380
C         -0.08120       -0.03760        0.02310
C          0.00960       -1.24140        0.04070
C          0.05360       -2.67900        0.01820
C          1.16690       -3.30310       -0.80750
C         -0.42650       -3.41510        1.27590
C         -1.30900       -3.36470        0.06130
O         -2.47850       -2.61450        0.06460
H          0.85700        1.85400        0.10240
H         -0.60280        1.80280       -0.89400
H         -0.73310        1.78930        0.87010
H          2.14910       -3.04790       -0.39640
H          1.07640       -4.39360       -0.81140
H          1.13110       -2.95360       -1.84400
H          0.07650       -4.34330        1.52730
H         -0.72480       -2.80520        2.12060
H         -1.40790       -4.26990       -0.53300
H         -2.22890       -1.68640       -0.04610
