12
gdb 7014	8.32324	0.93611	0.85115	5.9469	59.95	-0.3013	-0.063	0.2383	1217.423	0.081689	-377.556731	-377.548463	-377.547518	-377.59138	27.074
O          0.00420       -0.16150       -0.00300
C         -0.01200        1.03450        0.00380
C          1.25890        1.89900       -0.06870
C          2.49060        1.12530        0.01210
N          3.47920        0.53380        0.07860
C         -1.30600        1.86330        0.08570
C         -2.51620        1.05740       -0.00390
N         -3.48840        0.44010       -0.07720
H          1.23930        2.46230       -1.01090
H          1.23810        2.64960        0.73110
H         -1.30150        2.41630        1.03420
H         -1.30560        2.62310       -0.70560
