14
gdb 642	7.87479	2.95258	2.68219	1.8251	53.32	-0.241	0.0696	0.3106	534.4491	0.120166	-270.389803	-270.384161	-270.383217	-270.418893	20.683
C          0.06000        1.53690        0.00970
C          1.32410        0.70530       -0.00680
C         -0.01710        0.04310        0.00250
C         -0.61940       -0.89310        1.04500
O         -1.17980       -1.72400        0.00410
C         -0.63930       -0.88190       -1.03830
H         -0.19940        2.05750        0.92650
H         -0.21680        2.06720       -0.89630
H          1.90410        0.67200       -0.92400
H          1.92150        0.66220        0.89880
H          0.09690       -1.44420        1.66940
H         -1.39740       -0.46100        1.68910
H         -1.42940       -0.44300       -1.66270
H          0.06480       -1.42620       -1.68220
