19
gdb 1513	7.95712	1.11423	1.00746	2.426	68.27	-0.2404	-0.0055	0.2349	1207.804	0.168958	-310.955141	-310.945889	-310.944945	-310.990516	31.407
C         -9.96140        1.60650       -0.02860
C         -0.00880        0.07680        0.01830
C          0.67790       -0.55580       -1.19200
C          0.68490       -2.08020       -1.17660
O          0.17940       -2.71400       -0.27760
C          1.36500       -2.76390       -2.35810
C          1.33100       -4.28840       -2.28540
H          1.02250        2.00050       -0.05300
H         -0.51820        1.98270       -0.91800
H         -0.49750        2.03100        0.84880
H          0.48290       -0.27610        0.93120
H         -1.03770       -0.29380        0.07750
H          0.20080       -0.22920       -2.12770
H          1.71950       -0.21260       -1.27530
H          0.88720       -2.39980       -3.27830
H          2.39790       -2.39260       -2.41170
H          1.82630       -4.64650       -1.37940
H          0.30160       -4.65460       -2.25660
H          1.83180       -4.72890       -3.15210
