13
gdb 10373	2.57193	2.17535	1.43611	4.5411	62.84	-0.2811	-0.0301	0.2509	861.1665	0.096463	-357.631968	-357.624669	-357.623724	-357.663691	26.056
N          0.07590       -1.18380        0.01450
C         -0.00260       -0.03090        0.00350
C         -0.01980        1.44270        0.02120
C         -0.21060        2.01220        1.47540
C          1.32560        2.19360        1.48960
N          1.32330        2.06260        0.01100
C         -0.93140        1.94860       -1.01420
N         -1.65700        2.37360       -1.80550
H         -0.75940        2.95290        1.45230
H         -0.65590        1.32850        2.19510
H          1.71020        3.15260        1.84370
H          1.83830        1.37990        2.01580
H          2.05640        1.50480       -0.41370
