19
gdb 16658	2.77513	2.34662	1.73127	2.4482	70.29	-0.2231	0.0668	0.29	845.3113	0.166786	-365.045771	-365.038213	-365.037269	-365.076993	29.901
C         -0.82050        1.24360        0.03920
C          0.03470       -0.01740        0.00770
C          0.86030       -0.23610       -1.28800
O          1.25240        1.02880       -1.81910
C          2.05770       -1.08260       -0.79940
C          2.20410       -0.72040        0.67170
C          2.17480        0.71960        1.03770
N          0.95770       -0.10550        1.16250
H         -0.20750        2.14000       -0.07340
H         -1.55280        1.23460       -0.77370
H         -1.35760        1.30190        0.98960
H         -0.62450       -0.89010        0.10620
H          0.26510       -0.77760       -2.03620
H          1.79070        0.86710       -2.59990
H          1.82800       -2.15010       -0.89610
H          2.95950       -0.88880       -1.39060
H          2.68360       -1.43930        1.33080
H          2.59140        1.03770        1.98950
H          2.23370        1.44810        0.23630
