13
gdb 4047	6.30268	1.29968	1.09213	3.7377	57.53	-0.269	-0.0249	0.2441	988.0664	0.095044	-435.737249	-435.730107	-435.729162	-435.769327	25.653
O         -0.19530        1.33740        0.00780
N          0.02400       -0.04910        0.00230
C         -1.08150       -0.67310        0.00830
C         -2.46870       -0.07370        0.01980
O         -3.37200       -1.18310        0.02380
C         -2.72750       -2.38520        0.01600
O         -3.31650       -3.42340        0.01790
C         -1.21570       -2.16480        0.00510
H          0.70080        1.69120        0.00260
H         -2.64150        0.54240        0.90860
H         -2.65440        0.54650       -0.86360
H         -0.78250       -2.64050       -0.87980
H         -0.76890       -2.64560        0.88030
