12
gdb 7721	3.97849	2.01609	1.38041	3.1276	53.33	-0.2721	-0.0049	0.2672	811.5194	0.086401	-451.855858	-451.849586	-451.848642	-451.886598	23.03
N         -0.06700        1.28640        0.23590
C          0.03150        0.06270       -0.04840
N         -1.09940       -0.71090       -0.31050
C         -1.15530       -2.09600       -0.25160
O         -2.16500       -2.72780       -0.14590
O          0.07100       -2.68390       -0.32530
C          1.09970       -1.85730       -0.82940
O          1.19420       -0.64360       -0.10970
H          0.85320        1.70450        0.35350
H         -1.98360       -0.23210       -0.21700
H          2.03830       -2.38820       -0.68220
H          0.92250       -1.64910       -1.89240
