12
gdb 2745	4.75968	2.29186	1.76006	2.0863	52.29	-0.2685	-0.0415	0.227	687.8417	0.089771	-360.513668	-360.507291	-360.506347	-360.544494	22.032
N          0.13350        1.24620       -0.05370
C          0.02670        0.00560        0.07050
O          0.90760       -0.95380        0.50740
C         -0.07710       -2.02400        0.30510
C         -1.10510       -0.98980       -0.17610
C         -2.32430       -0.76450        0.69380
O         -2.62230       -1.46300        1.62680
H          1.05790        1.57740        0.22660
H          0.27670       -2.74080       -0.43750
H         -0.32810       -2.51420        1.24630
H         -1.40440       -1.04370       -1.22670
H         -2.92620        0.12330        0.40980
