11
gdb 192	9.35773	3.58145	2.6326	2.0636	47.63	-0.2364	0.0066	0.243	481.0455	0.086244	-285.328258	-285.323118	-285.322174	-285.356714	18.024
C          0.06150        1.48870        0.06140
C         -0.06700        0.01200       -0.00220
C         -1.07240       -0.85560       -0.27560
N         -0.60420       -2.16310       -0.18450
C          0.63880       -2.02440        0.13370
O          1.05040       -0.74070        0.26520
H          0.80420        1.85890       -0.65400
H         -0.89960        1.95160       -0.17310
H          0.36900        1.82300        1.05840
H         -2.09710       -0.63680       -0.53080
H          1.37900       -2.79000        0.30530
