20
gdb 8522	4.27682	1.87579	1.58586	0.0935	79.06	-0.2813	0.0891	0.3705	892.4346	0.176965	-311.800079	-311.792765	-311.791821	-311.830888	29.828
C         -0.12150        1.56230       -0.00550
C         -0.06080        0.03570       -0.00540
C         -1.42450       -0.55780       -0.35540
C          1.18210       -0.61830       -0.67080
C          2.11960       -0.27660        0.54150
C          2.62710       -1.72510        0.65510
C          1.14160       -1.86810        0.27890
C          0.72090       -0.63660        1.15750
H          0.84150        2.01730        0.24210
H         -0.42610        1.94030       -0.98860
H         -0.85790        1.92320        0.72240
H         -1.75410       -0.22040       -1.34520
H         -1.41300       -1.65120       -0.36340
H         -2.18570       -0.23760        0.36590
H          1.47400       -0.62390       -1.72420
H          2.67450        0.64990        0.69080
H          3.35880       -2.05150       -0.09150
H          2.91860       -2.06890        1.65320
H          0.56610       -2.78100        0.12460
H          0.47820       -0.66330        2.22300
