20
gdb 13810	3.79584	1.12296	1.00436	2.07	71.42	-0.2614	0.075	0.3364	1245.3896	0.174905	-386.121737	-386.11218	-386.111236	-386.156661	34.184
C          0.48550        0.66960        1.54660
C         -0.35910       -0.55590        1.92600
C         -1.03250       -0.38070        3.29460
C         -1.40400       -0.80630        0.85730
O         -0.96580       -1.33350       -0.40020
C         -1.87530       -2.12170        0.39170
C         -1.33930       -3.45720        0.84430
O         -1.22710       -4.34960       -0.25270
H          1.27300        0.84540        2.28620
H          0.95630        0.52960        0.56940
H         -0.13380        1.57320        1.49740
H          0.30710       -1.42400        1.96870
H         -1.72730        0.46730        3.28560
H         -1.59820       -1.27240        3.58310
H         -0.28670       -0.18720        4.07180
H         -2.11600        0.01800        0.74990
H         -2.87950       -2.17600       -0.03340
H         -0.37680       -3.33520        1.35860
H         -2.04040       -3.92110        1.54690
H         -0.67060       -3.91130       -0.90670
