19
gdb 14390	4.07337	1.89369	1.60078	1.3819	74.77	-0.2128	0.0641	0.2769	878.42	0.165171	-327.831774	-327.824293	-327.823349	-327.862863	30.189
C         -0.09220        1.59060       -0.03450
C          0.01570        0.06580       -0.09250
C         -1.13370       -0.60840        0.64800
C          0.55880       -0.78610       -1.18460
C          1.83890       -0.36700       -1.92820
C          2.42140        0.94670       -1.48620
C          2.48530       -0.24570       -0.56710
N          1.25050       -0.73410        0.16230
H         -0.18100        2.04710       -1.02310
H         -0.98860        1.86490        0.52870
H          0.76010        2.03860        0.48160
H         -2.09200       -0.34400        0.18690
H         -1.02450       -1.69520        0.64070
H         -1.15370       -0.27720        1.69150
H          0.03660       -1.69200       -1.48480
H          2.18510       -0.89710       -2.80550
H          3.38770        1.14400       -1.94460
H          1.84400        1.84030       -1.31510
H          3.42620       -0.63530       -0.19970
