14
gdb 19463	5.30569	1.52122	1.49725	2.7196	61.9	-0.2422	-0.0437	0.1984	850.3597	0.107117	-382.48936	-382.483051	-382.482107	-382.520033	24.154
O         -0.01360       -0.05760       -0.18010
C          0.02560        1.12480        0.05590
C          1.30100        1.92880        0.03750
C          1.18180        3.33610       -0.65350
O          0.47450        3.80090        0.54250
C          1.45200        2.94880        1.22450
C          2.78230        3.63830        0.86420
C          2.59590        3.90550       -0.42870
H         -0.88770        1.70320        0.30540
H          2.15480        1.29890       -0.21520
H          0.65500        3.50540       -1.59130
H          1.20920        2.71140        2.25910
H          3.61450        3.83280        1.52340
H          3.22780        4.38730       -1.15910
