22
gdb 6107	4.0251	0.95313	0.81134	1.8703	75.64	-0.2516	0.0766	0.3282	1468.427	0.19675	-387.342406	-387.3318	-387.330856	-387.378523	37.748
C          0.15170        0.53710       -0.79180
C          0.08340       -0.10930        0.58820
O          0.36770        0.81560        1.63260
C         -1.26580       -0.78370        0.85660
O         -1.45980       -1.80440       -0.09620
C         -2.74220       -2.42430       -0.08430
C         -2.87840       -3.15670       -1.41470
C         -2.91070       -3.36690        1.11110
H          1.13660        0.98110       -0.95950
H         -0.04680       -0.20400       -1.56960
H         -0.60350        1.32940       -0.88300
H          0.86190       -0.87670        0.66780
H         -0.21080        1.57690        1.51320
H         -1.26130       -1.17040        1.88590
H         -2.07460       -0.03180        0.78890
H         -3.51270       -1.63600       -0.02730
H         -2.11140       -3.93320       -1.49960
H         -3.86090       -3.63090       -1.49710
H         -2.75420       -2.46090       -2.24860
H         -2.82690       -2.83560        2.06320
H         -3.89500       -3.84520        1.08400
H         -2.14490       -4.14900        1.08540
