13
gdb 4998	3.38694	2.35959	1.40268	2.139	62.71	-0.258	-0.0643	0.1936	820.6125	0.096453	-398.665876	-398.659165	-398.658221	-398.696835	24.438
C         -0.02730        1.52130        0.00130
C         -0.00580        0.02320       -0.03350
C         -0.05170       -0.71990       -1.16670
N         -0.03170       -2.10120       -1.19740
C          0.03470       -2.67810       -0.05730
O          0.08640       -2.07900        1.13940
C          0.07000       -0.66980        1.24400
O          0.11890       -0.18940        2.34090
H          0.87040        1.91140        0.49220
H         -0.08630        1.93570       -1.00790
H         -0.88080        1.88420        0.58350
H         -0.10870       -0.23900       -2.13960
H          0.05730       -3.75980        0.03570
