16
gdb 9899	4.82854	0.89774	0.8226	0.9042	70.83	-0.2562	0.0197	0.2758	1389.0234	0.127787	-383.681887	-383.672827	-383.671882	-383.717077	31.357
C         -0.14830        1.48160       -0.18630
C         -0.02190       -0.01840       -0.01690
C          0.86300       -0.79610       -0.90980
O          1.27670       -0.47770        0.41400
C         -1.15010       -0.67910        0.59720
C         -2.11860       -1.17980        1.11130
C         -3.26100       -1.85210        1.72940
O         -3.68770       -3.01180        1.02920
H          0.75730        1.88420       -0.64650
H         -1.00940        1.72550       -0.81560
H         -0.29000        1.96280        0.78560
H          0.64650       -1.84640       -1.09650
H          1.38980       -0.27550       -1.70920
H         -3.01840       -2.08190        2.77940
H         -4.12570       -1.17950        1.74650
H         -2.92150       -3.58640        0.92920
