20
gdb 17844	4.38209	1.81239	1.56515	0.1125	78.97	-0.2776	0.0955	0.3731	894.9607	0.179188	-311.807365	-311.800616	-311.799672	-311.838139	27.725
C          0.08100        1.43510       -0.48680
C          1.40090        1.65700        0.30260
C          1.31420        0.18740        0.78710
C         -0.15940        0.12370        0.31110
C          2.37130       -0.89050        0.39650
C          3.28510       -0.28180        1.49980
C          1.86410       -0.36470        2.13100
C          1.75310       -1.78740        1.50820
H         -0.68210        2.21210       -0.40320
H          0.26260        1.24440       -1.54780
H          2.28210        1.94780       -0.27560
H          1.27910        2.37170        1.12340
H         -0.86730        0.26230        1.13510
H         -0.46870       -0.75550       -0.26050
H          2.66270       -1.19260       -0.61180
H          4.04290       -0.94730        1.92280
H          3.69080        0.71560        1.31660
H          1.56740       -0.05720        3.13620
H          0.74770       -2.17670        1.33280
H          2.40760       -2.55440        1.93180
