22
gdb 13716	5.59553	0.76324	0.72777	1.7228	79.75	-0.2563	0.0926	0.349	1656.1647	0.198528	-350.199923	-350.190089	-350.189144	-350.235336	34.991
C         -0.06200        1.56130       -0.37740
C         -0.01840        0.10580        0.09560
C         -1.38710       -0.58070        0.05330
C         -1.34980       -2.04090        0.52690
C         -2.71370       -2.68600        0.48090
O         -3.23450       -3.03640       -0.80980
C         -2.98820       -4.09000        0.12910
C         -1.94580       -5.11730       -0.23180
H          0.92960        2.02330       -0.34240
H         -0.42620        1.63080       -1.40830
H         -0.73120        2.16140        0.24930
H          0.68920       -0.45990       -0.52520
H          0.37770        0.06370        1.11920
H         -2.09760       -0.01540        0.67270
H         -1.78410       -0.55280       -0.96920
H         -0.64430       -2.60540       -0.09090
H         -0.97650       -2.08560        1.55960
H         -3.45310       -2.19480        1.12020
H         -3.90440       -4.51830        0.54360
H         -1.04330       -4.65910       -0.64030
H         -1.67150       -5.70770        0.64950
H         -2.34350       -5.80690       -0.98400
