17
gdb 16166	4.28491	1.66718	1.41542	0.7793	69.24	-0.2182	0.0155	0.2337	909.2426	0.142885	-363.832406	-363.825054	-363.82411	-363.864013	28.086
O          0.04500        1.34550        0.31040
C         -0.00000       -0.01970       -0.08810
C         -1.43510       -0.46930        0.00420
C         -1.99030       -1.08620        1.24290
N         -1.71390       -1.92480        0.06860
C         -2.89040       -2.16860       -0.79910
C         -3.29450       -0.81300       -1.33890
C         -2.46180        0.13010       -0.90040
H          0.93450        1.67350        0.15040
H          0.35740       -0.14430       -1.12240
H          0.62010       -0.65740        0.55850
H         -1.34140       -1.28200        2.09320
H         -3.02480       -0.86000        1.49160
H         -2.60800       -2.86270       -1.60230
H         -3.68890       -2.65830       -0.22680
H         -4.15820       -0.65990       -1.97570
H         -2.48950        1.18720       -1.12960
