16
gdb 9208	6.14608	0.95912	0.86157	5.8007	63.16	-0.2656	-0.0343	0.2313	1304.4063	0.127326	-420.916373	-420.907336	-420.906392	-420.951172	30.361
C          0.30890        1.39390        0.02710
C         -0.12250       -0.06150        0.19240
C          0.60180       -0.78530        1.31230
O          1.30190       -0.23170        2.12430
C          0.42050       -2.30830        1.34910
O          0.74330       -2.86270        2.60860
C          2.05600       -2.90520        2.94460
O          2.42350       -3.28180        4.01360
H          1.36830        1.46070       -0.23440
H         -0.27190        1.88030       -0.76080
H          0.16700        1.94670        0.95830
H         -1.19780       -0.13080        0.41350
H          0.01220       -0.63310       -0.73650
H         -0.61730       -2.58250        1.14290
H          1.03620       -2.74090        0.54500
H          2.72270       -2.59310        2.12060
