15
gdb 19944	4.16382	1.49072	1.16212	0.8089	62.36	-0.269	0.0179	0.2869	985.8028	0.119042	-399.766918	-399.759686	-399.758742	-399.799268	25.926
N          0.15600        1.23910       -0.15440
C          0.08690        0.00380        0.04030
O          1.05840       -0.91580        0.37470
C          0.07770       -2.00000        0.42580
C         -1.04420       -1.01450        0.02310
C         -2.16670       -0.78430        0.99700
C         -3.45460       -0.23050        0.56880
O         -3.31250       -1.62570        0.84910
H          1.11140        1.58320       -0.04230
H          0.31990       -2.78360       -0.29460
H          0.00730       -2.41540        1.43440
H         -1.44920       -1.19070       -0.97590
H         -1.85900       -0.62400        2.03160
H         -4.05970        0.33150        1.27770
H         -3.60580        0.02480       -0.47870
