19
gdb 1099	3.17463	2.2915	1.90776	2.5974	67.15	-0.2367	-0.0077	0.229	809.0495	0.168115	-310.952875	-310.943784	-310.94284	-310.985913	32.977
C         -0.00400        1.50900       -0.13310
C          0.03190        0.00470        0.10040
O          1.08040       -0.55160        0.33620
C         -1.29650       -0.77970        0.03950
C         -0.99390       -2.28210       -0.05940
C         -2.06510       -0.49430        1.35170
C         -2.14690       -0.33140       -1.16560
H          0.93800        1.94270        0.20460
H         -0.11800        1.71100       -1.20430
H         -0.84350        1.99230        0.37410
H         -0.37040       -2.61190        0.77380
H         -1.92630       -2.85590       -0.05120
H         -0.45560       -2.51590       -0.98260
H         -2.31590        0.56530        1.46210
H         -3.00370       -1.05850        1.36040
H         -1.48020       -0.79960        2.22490
H         -1.61590       -0.48900       -2.11060
H         -3.07170       -0.91650       -1.20480
H         -2.42820        0.72380       -1.10530
