17
gdb 17850	4.76286	1.85689	1.61027	2.4613	67.86	-0.2377	0.0694	0.3071	823.9647	0.143735	-363.752075	-363.745666	-363.744722	-363.782652	25.155
C         -0.07730        1.53230        0.05250
C          1.44440        1.27510        0.09200
C          1.07470        0.12730        1.05580
N         -0.01510       -0.00710       -0.02780
C          1.14040        0.24160       -1.00630
C          0.88030        0.50380       -2.49490
O          1.79040       -0.55260       -2.86490
C          2.03630       -0.90620       -1.48810
H         -0.55940        1.89660        0.96340
H         -0.50600        2.00270       -0.83600
H          2.27030        1.99270        0.14860
H          1.74040       -0.73710        1.12040
H          0.67460        0.39160        2.03810
H         -0.14730        0.29970       -2.82270
H          1.20000        1.47920       -2.88360
H          3.10050       -0.83890       -1.22830
H          1.66440       -1.90990       -1.24490
