16
gdb 11550	5.93697	1.00461	0.96577	2.4207	61.98	-0.2695	0.0122	0.2817	1227.1614	0.128604	-420.883948	-420.875335	-420.874391	-420.918719	29.064
C          0.04540        1.25320        0.36660
O         -0.10420       -0.15850        0.15950
C         -1.33880       -0.55880       -0.19600
O         -2.27520        0.18760       -0.33230
C         -1.38030       -2.05830       -0.43210
C         -2.73030       -2.64220       -0.09060
C         -2.88550       -4.05820        0.25660
O         -2.91670       -3.04830        1.26670
H          1.08840        1.40250        0.64540
H         -0.19060        1.80390       -0.54730
H         -0.61810        1.59580        1.16430
H         -1.16860       -2.21860       -1.49800
H         -0.58890       -2.55110        0.13680
H         -3.57800       -2.10940       -0.51800
H         -3.83200       -4.56170        0.06520
H         -2.01110       -4.70820        0.27270
