18
gdb 17643	2.7343	1.82606	1.51641	3.07	68.62	-0.2202	0.0222	0.2425	934.2909	0.15297	-381.122384	-381.11342	-381.112475	-381.15611	32.305
C         -0.56570        1.29310        1.41500
C         -0.02710        0.53650        0.20030
N          1.22990       -0.12940        0.56730
C          1.20780       -1.40070        1.28870
C          1.66120       -1.33610       -0.13010
C         -1.11690       -0.40630       -0.34580
N         -1.35930       -0.30120       -1.68360
O         -1.70800       -1.20640        0.35900
H          0.22810        1.90720        1.84680
H         -1.40310        1.93900        1.13400
H         -0.92170        0.58320        2.16550
H          0.24080        1.25710       -0.58380
H          1.93650       -1.48180        2.09100
H          0.24620       -1.86920        1.47280
H          1.00380       -1.77730       -0.87660
H          2.71830       -1.37520       -0.37970
H         -0.87520        0.35610       -2.26880
H         -2.06180       -0.89560       -2.09390
