15
gdb 998	3.87635	3.32907	1.83223	3.7673	62.88	-0.2105	0.0365	0.2471	691.9459	0.126291	-304.744503	-304.737403	-304.736458	-304.77634	24.819
C          0.04220        1.45290        0.01200
N         -0.00510        0.00500       -0.00080
C         -0.00760       -0.79920       -1.12340
C         -0.00230       -2.08420       -0.65660
N          0.00760       -2.09660        0.71800
C          0.00950       -0.83120        1.08630
C          0.02420       -0.34370        2.49650
H          1.05960        1.82420        0.18040
H         -0.31240        1.83440       -0.94740
H         -0.60570        1.84760        0.79860
H         -0.01740       -0.37840       -2.11560
H         -0.01090       -2.99960       -1.22870
H          0.91220        0.26020        2.71900
H         -0.85480        0.26760        2.73460
H          0.02550       -1.21210        3.15620
