16
gdb 8448	4.05357	1.9466	1.66427	4.4569	64.52	-0.2605	0.0159	0.2765	815.1509	0.131602	-383.768635	-383.762068	-383.761124	-383.799026	26.12
C         -0.10330        1.49770        0.00750
C          0.08450        0.00990        0.03560
C          1.00720       -0.80460       -0.90840
C          0.65990       -1.93300        0.12180
C          0.68880       -0.80490        1.20890
C         -0.84490       -2.00010       -0.10460
O         -1.60550       -2.91250       -0.21870
O         -1.20470       -0.67480       -0.15840
H          0.85700        2.00080        0.15230
H         -0.52180        1.81550       -0.95200
H         -0.78600        1.81520        0.80110
H          0.68230       -0.92810       -1.94380
H          2.05370       -0.49760       -0.85720
H          1.19030       -2.87710        0.20150
H          1.70400       -0.49790        1.46780
H          0.07370       -0.92870        2.10300
