22
gdb 16366	2.51699	2.02299	1.37393	0.1742	82.11	-0.2587	0.0872	0.3459	1023.0756	0.199831	-313.05627	-313.047603	-313.046659	-313.088989	33.693
C         -0.02440        1.59430       -0.03420
C          0.03620        0.07620        0.03930
C          1.03550       -0.67430       -0.88970
C          1.40530       -1.62130        0.28990
C          2.86670       -1.99020        0.49490
C          0.72930       -0.60770        1.23420
C          1.39140        0.09630        2.38610
C          0.21140       -0.82060        2.62230
H          0.97240        2.03540        0.07380
H         -0.43310        1.92240       -0.99650
H         -0.66320        2.01260        0.75270
H         -0.97270       -0.33710       -0.08590
H          0.63580       -1.13090       -1.79870
H          1.88070       -0.03290       -1.16320
H          0.80050       -2.53560        0.23860
H          3.49800       -1.09610        0.53600
H          3.01630       -2.54940        1.42600
H          3.22940       -2.61860       -0.32620
H          2.37210       -0.24260        2.70450
H          1.23690        1.16490        2.49680
H         -0.73980       -0.36990        2.89070
H          0.39670       -1.77900        3.09870
