18
gdb 10203	3.19763	1.07219	0.83495	0.8523	70.3	-0.2607	0.0439	0.3046	1333.5345	0.15116	-384.893254	-384.88348	-384.882536	-384.928301	34.403
O         -0.15790        1.50090       -0.15850
C          0.02380        0.10230       -0.00320
C         -1.36550       -0.52570        0.05180
C         -1.35520       -2.06950        0.05290
C         -0.70920       -2.66890        1.32750
O         -0.71810       -4.07830        1.32760
C         -2.71060       -2.60210       -0.08270
C         -3.82010       -3.06440       -0.14150
H          0.70730        1.92040       -0.14950
H          0.58950       -0.32460       -0.84850
H          0.59010       -0.12100        0.91370
H         -1.89600       -0.15820        0.93730
H         -1.92720       -0.17220       -0.81830
H         -0.76540       -2.42300       -0.80450
H          0.34240       -2.37320        1.38130
H         -1.22200       -2.25380        2.21040
H         -1.63530       -4.35420        1.20810
H         -4.80360       -3.45710       -0.22270
