15
gdb 17095	4.86899	1.6929	1.62214	4.5637	64.65	-0.2692	0.0137	0.2829	817.1569	0.121053	-362.648976	-362.642795	-362.641851	-362.679289	24.23
N         -0.07180       -1.12960       -0.07130
C         -0.02220        0.02340       -0.01440
C          0.05260        1.48970        0.02750
O         -0.42250        1.99580        1.29230
C          0.73490        2.72140        1.76870
C          1.19070        3.50560        0.51590
C          1.49070        2.05330        0.02470
C          1.90460        1.74730        1.49970
H         -0.55960        1.89090       -0.78880
H          0.50270        3.16650        2.73350
H          0.43560        4.09300       -0.01150
H          2.10230        4.08390        0.67030
H          2.11240        1.82150       -0.83760
H          2.88080        2.16530        1.74740
H          1.80740        0.72450        1.86810
