22
gdb 14800	13.04886	0.51836	0.50807	0.0001	77.52	-0.2507	0.0898	0.3404	2197.499	0.197823	-387.320603	-387.309962	-387.309018	-387.357336	35.565
C         -0.02260        1.38430       -0.00070
O          0.00150       -0.02140       -0.00080
C          0.67030       -0.55970        1.11900
C          0.63930       -2.07870        1.02190
C          1.34480       -2.75600        2.19990
C          1.31380       -4.27500        2.10280
O          1.98260       -4.81330        3.22250
C          2.00660       -6.21900        3.22250
H          0.99280        1.81260       -0.02100
H         -0.55710        1.70420       -0.89860
H         -0.54290        1.78630        0.88380
H          1.71350       -0.19820        1.15360
H          0.18600       -0.22450        2.05340
H         -0.40760       -2.40150        0.96750
H          1.10720       -2.37550        0.07520
H          2.39170       -2.43320        2.25430
H          0.87690       -2.45920        3.14650
H          0.27060       -4.63650        2.06810
H          1.79810       -4.61020        1.16840
H          2.52690       -6.62110        2.33800
H          2.54110       -6.53890        4.12040
H          0.99120       -6.64730        3.24280
