14
gdb 1772	4.84862	1.95478	1.75602	5.4701	58.74	-0.2386	0.0318	0.2705	745.4497	0.114517	-320.740782	-320.733558	-320.732614	-320.771532	26.919
N         -0.13400        1.45070        0.02510
C         -0.04250        0.01740       -0.00690
C         -0.43550       -0.73490        1.22980
C         -1.37520       -0.74060        0.01960
N         -2.58570        0.03150       -0.01240
C         -1.42520       -1.96820       -0.74420
N         -1.44650       -2.96130       -1.33720
H          0.57430        1.84530        0.63470
H          0.00030        1.84490       -0.90000
H          0.73210       -0.44010       -0.62040
H          0.10730       -1.63960        1.47740
H         -0.78440       -0.15000        2.07400
H         -3.22770       -0.26450        0.71500
H         -2.34030        1.00530        0.14830
