14
gdb 21117	5.18944	1.63787	1.25454	4.3693	72.83	-0.2142	-0.0531	0.1611	922.603	0.107928	-374.868767	-374.86144	-374.860495	-374.901033	26.118
C         -0.01360        1.43240        0.06760
N         -0.02250       -0.01440        0.16610
C         -1.11270       -0.67040        0.06010
C         -1.12940       -2.12110        0.15780
C         -2.30160       -2.76340        0.03950
N         -3.44220       -2.02400       -0.16950
N         -3.45840       -0.66990       -0.26520
N         -2.38260       -0.02750       -0.16030
H          0.66050        1.72540       -0.74710
H         -0.99330        1.89010       -0.09990
H          0.41990        1.84500        0.98730
H         -0.19880       -2.64660        0.32300
H         -2.43170       -3.83740        0.09550
H         -4.35320       -2.43940       -0.26720
