15
gdb 19345	4.24383	1.83593	1.52215	3.2521	66.85	-0.2363	-0.0248	0.2114	831.6701	0.118682	-362.582966	-362.576388	-362.575444	-362.613625	25.532
O         -0.07880        0.01140        0.02280
C          0.01810        1.21750       -0.01800
C          1.27990        1.94510        0.07510
C          1.37490        3.42890        0.37680
C          1.84080        2.96220       -0.95120
N          3.15220        2.22910       -1.06320
C          3.81020        2.14000        0.25910
C          2.65370        1.26600       -0.00770
H         -0.87710        1.86870       -0.14750
H          0.41450        3.93590        0.33980
H          2.02770        3.79720        1.15930
H          1.38540        3.28120       -1.87970
H          4.79100        1.68120        0.17720
H          3.77070        2.96410        0.96200
H          2.72880        0.19610       -0.15920
