14
gdb 21189	3.48927	1.83175	1.21467	2.9472	60.22	-0.2054	0.009	0.2144	937.5767	0.107745	-415.83917	-415.831735	-415.830791	-415.870987	27.2
C         -0.13400        1.42340       -0.01420
N          0.18600        0.01360        0.12050
C          0.67770       -0.63990       -0.99980
C          1.22110       -0.17710       -2.15950
O          1.62540       -1.20920       -2.94190
N          1.33070       -2.40430       -2.29660
C          0.78070       -2.05600       -1.16360
O          0.34140       -2.94340       -0.25220
H          0.78330        1.99130       -0.20650
H         -0.84200        1.63690       -0.83150
H         -0.55920        1.78720        0.92350
H         -0.52110       -0.52520        0.60030
H          1.39360        0.80920       -2.55650
H          0.50530       -3.82970       -0.60060
