17
gdb 3020	4.99069	1.70418	1.38476	1.5588	60.83	-0.2546	0.0868	0.3415	898.1034	0.146169	-346.819476	-346.811271	-346.810327	-346.852361	28.463
C          0.16840        1.42770        0.23200
O         -0.04570        0.04140        0.10210
C          0.51400       -0.54130       -1.06540
C          2.03840       -0.66610       -1.00110
C         -0.13600       -1.90300       -1.19030
C         -1.29230       -2.13620       -2.05820
O          0.02110       -2.54940       -2.45260
H          1.22640        1.68160        0.39000
H         -0.18960        1.97820       -0.65240
H         -0.39970        1.75880        1.10490
H          0.23640        0.05410       -1.95150
H          2.39870       -1.19860       -1.88590
H          2.52490        0.31260       -0.97320
H          2.33590       -1.22570       -0.10840
H          0.00370       -2.55070       -0.32310
H         -1.98650       -2.94380       -1.83180
H         -1.71080       -1.30720       -2.62710
