16
gdb 20862	3.13136	1.85347	1.27664	4.0912	66.03	-0.2889	-0.0329	0.256	963.5522	0.129871	-379.902313	-379.894315	-379.893371	-379.935245	28.243
C          0.01950        1.56340       -0.07130
C         -0.01400        0.04090        0.14890
C         -1.38950       -0.53740        0.02610
N         -2.09430       -0.88650        1.06860
O         -3.28540       -1.35110        0.58470
N         -3.31860       -1.29330       -0.78060
C         -2.16900       -0.79670       -1.15030
C         -1.81840       -0.58750       -2.58620
H          1.04170        1.93980        0.02630
H         -0.34380        1.83510       -1.06720
H         -0.60600        2.07460        0.66580
H          0.64700       -0.45040       -0.57500
H          0.36820       -0.19840        1.14500
H         -1.67920        0.47510       -2.81000
H         -0.88540       -1.10090       -2.84100
H         -2.61420       -0.97370       -3.22530
