20
gdb 8386	4.93079	1.25212	1.15776	1.1181	77.13	-0.2126	0.0758	0.2883	1127.0785	0.176715	-345.13384	-345.125381	-345.124437	-345.166517	31.752
C         -0.02060        1.53490       -0.14750
C         -0.00620        0.03490        0.00890
N          1.30740       -0.63670       -0.14470
C          0.64030       -0.65070        1.14730
C          1.20870       -0.08930        2.45120
N          0.36370       -1.06320        3.18120
C          0.93560       -1.74260        4.32120
C          0.12420       -1.84700        1.95000
H          0.87900        1.97600        0.28990
H         -0.05210        1.81660       -1.20550
H         -0.89680        1.97020        0.34550
H         -0.86850       -0.47930       -0.41630
H          1.20210       -1.53590       -0.60950
H          2.28990       -0.28490        2.54010
H          1.01310        0.96020        2.69760
H          1.13420       -1.02140        5.12120
H          0.22700       -2.48310        4.70760
H          1.88420       -2.26510        4.08910
H         -0.91370       -2.16800        1.80020
H          0.78660       -2.72590        1.85440
