12
gdb 21471	8.21766	1.28138	1.11324	5.4837	58.66	-0.2524	-0.0103	0.242	978.2787	0.086132	-410.854897	-410.848251	-410.847307	-410.886648	23.069
N         -0.09040        1.24140        0.18100
C         -0.03250        0.00620       -0.04560
O         -1.16790       -0.73710        0.13430
C         -1.07020       -2.07900        0.07490
N          0.06700       -2.75060        0.16620
N         -0.37960       -4.03230        0.06210
C         -1.71730       -4.05170       -0.06680
N         -2.19520       -2.82120       -0.06570
H          0.81000        1.67140       -0.02240
H          0.81780       -0.58490       -0.39120
H          0.27700       -4.79390        0.10480
H         -2.29310       -4.96020       -0.15770
