13
gdb 460	6.95109	3.605	2.72215	1.8411	49.49	-0.246	0.0261	0.2721	504.1131	0.109554	-286.510514	-286.504912	-286.503968	-286.539796	19.819
C         -0.18750        1.54840       -0.00150
C          0.07230        0.05110        0.01670
C          0.94520       -0.48210       -1.15410
N          2.16440       -1.01620       -0.52120
C          1.99750       -0.85590        0.72410
O          0.86410       -0.28740        1.19490
H          0.75400        2.10080       -0.08140
H         -0.81300        1.80820       -0.86200
H         -0.70280        1.86880        0.90800
H         -0.87000       -0.49790        0.10950
H          0.44750       -1.27310       -1.72420
H          1.21070        0.31220       -1.86130
H          2.70730       -1.14060        1.49330
