18
gdb 10254	2.15572	2.01053	1.09254	0.602	79.34	-0.2603	0.0336	0.294	1095.7846	0.149826	-310.604445	-310.594878	-310.593934	-310.638237	35.326
C          0.00370        1.55630        0.01820
C          0.03090        0.02440        0.03130
C          0.77300       -0.50370        1.26330
C         -1.42340       -0.55730       -0.03260
C         -2.16520       -0.06530       -1.19940
C         -2.76540        0.34020       -2.15780
C         -1.43350       -2.02470       -0.01440
C         -1.43360       -3.22590       -0.00100
H          1.02330        1.95360        0.02860
H         -0.50590        1.94310       -0.86730
H         -0.51230        1.94570        0.90430
H          0.54660       -0.32780       -0.87010
H          0.28010       -0.17590        2.18680
H          0.81520       -1.59520        1.27150
H          1.79770       -0.12010        1.28190
H         -1.94490       -0.20530        0.87140
H         -3.30320        0.69220       -3.00310
H         -1.44340       -4.28770        0.00880
