15
gdb 1000	3.9276	3.21907	1.80917	4.0475	62.88	-0.211	0.0372	0.2483	697.1187	0.126618	-304.742823	-304.735902	-304.734958	-304.77362	24.648
C          0.02320        1.44350        0.03560
N          0.00610       -0.00350        0.02740
C         -0.03150       -0.80880       -1.07670
N         -0.03840       -2.08270       -0.76560
C         -0.00360       -2.10930        0.60880
C          0.02450       -0.84010        1.13120
C          0.06620       -0.33810        2.53400
H          0.92890        1.82680        0.51690
H          0.00130        1.80270       -0.99500
H         -0.84750        1.84770        0.56210
H         -0.05220       -0.39550       -2.07510
H         -0.00060       -3.04110        1.15540
H          0.96200        0.26190        2.73870
H         -0.80350        0.28290        2.78370
H          0.07370       -1.18520        3.22370
