15
gdb 11777	4.64341	1.79981	1.63934	3.2639	65.9	-0.2372	-0.0343	0.2029	803.4407	0.119577	-362.607969	-362.601537	-362.600593	-362.638592	25.055
O          0.02270       -0.09340        0.21620
C          0.07610        1.04760       -0.16900
C          1.30850        1.88570       -0.10880
C          1.56900        2.85110        1.11750
C          3.00840        2.66290        0.54320
N          2.64720        1.22750        0.17070
C          2.85880        3.32210       -0.83480
C          1.70650        2.81280       -1.27170
H         -0.82370        1.56880       -0.56950
H          1.11520        3.84570        1.10240
H          1.41550        2.35380        2.08070
H          3.91160        2.83310        1.12720
H          2.53480        0.69030        1.03560
H          3.54760        4.00860       -1.30400
H          1.16820        2.95100       -2.19740
