20
gdb 13935	3.19137	1.85049	1.48264	1.6463	74.4	-0.2361	0.0774	0.3135	947.7923	0.177119	-348.983979	-348.975975	-348.975031	-349.016823	30.352
C         -0.36200        1.42250        0.25910
C          0.00880       -0.03850        0.05300
C          1.17190       -0.33650       -0.91660
O          1.92970       -0.98890        0.12030
C          0.90900       -0.75010        1.10350
C          1.30720       -0.07710        2.43860
C          0.34070       -1.04840        3.16980
C          0.36270       -1.95300        1.90710
H          0.52330        2.03650        0.45560
H         -0.85240        1.82460       -0.63420
H         -1.05280        1.54880        1.09970
H         -0.88800       -0.62430       -0.17050
H          0.94990       -1.01190       -1.75180
H          1.68970        0.55050       -1.30570
H          2.35460       -0.30320        2.65890
H          1.14870        0.99840        2.54820
H          0.68730       -1.48820        4.10670
H         -0.64230       -0.60100        3.34000
H         -0.57410       -2.40590        1.57010
H          1.12860       -2.73100        1.97690
