19
gdb 6141	4.6181	1.19024	1.13055	4.3882	76.32	-0.3006	0.0327	0.3333	1122.3463	0.164951	-327.946044	-327.937546	-327.936601	-327.978803	31.983
C         -0.17840        1.50390       -0.00970
C          0.01780       -0.01440        0.01000
C         -1.29950       -0.74010       -0.24110
C          1.22210       -0.46180       -0.88020
C          2.12360       -0.49410        0.39350
C          0.82660       -0.48510        1.26180
C          3.04220       -1.60770        0.55100
N          3.75710       -2.50880        0.67310
H          0.75940        2.04110        0.16930
H         -0.56930        1.83360       -0.97870
H         -0.89080        1.81460        0.76270
H         -1.72060       -0.46580       -1.21520
H         -1.16460       -1.82650       -0.22800
H         -2.04180       -0.48460        0.52400
H          1.08090       -1.46300       -1.29350
H          1.53810        0.21180       -1.68000
H          2.68210        0.43840        0.50680
H          0.83370        0.17020        2.13580
H          0.55110       -1.49420        1.57640
