17
gdb 14377	4.01861	2.29007	1.95508	1.3277	67.17	-0.2356	0.0749	0.3105	739.3969	0.145501	-363.764228	-363.758512	-363.757568	-363.793649	24.275
C          0.03330        1.50800       -0.26160
O          1.45500        1.55280        0.10980
C          1.22240        0.38190        0.91290
C          1.78240       -1.00020        1.32730
N          0.49970       -1.03640        2.18130
C          0.72310        0.44730        2.37100
C         -0.63600       -0.95050        1.17170
C         -0.00640       -0.00220        0.11880
H         -0.55920        2.18160        0.36820
H         -0.10720        1.75400       -1.31620
H          1.86740       -1.77640        0.56300
H          2.64000       -1.01010        2.00140
H          1.51530        0.63030        3.09960
H         -0.17060        1.02370        2.62290
H         -0.85020       -1.93940        0.76100
H         -1.52620       -0.58940        1.69060
H          0.27840       -0.55930       -0.77830
