17
gdb 17532	5.26257	1.43076	1.30248	2.4596	69.09	-0.2343	0.0758	0.3101	978.1393	0.141643	-363.792201	-363.784931	-363.783987	-363.82347	27.954
C         -0.04640        1.45090       -0.01710
C          0.03170       -0.05420       -0.08290
C          0.76370       -0.71310       -1.19060
N          1.35900       -0.62410        0.21220
C          1.15400       -2.11370        0.35640
C          0.62800       -2.21090       -1.07830
C         -0.22730       -3.16680       -1.78320
O          1.18980       -3.10120       -2.02030
H          0.85900        1.90150       -0.43250
H         -0.90950        1.82040       -0.58070
H         -0.14490        1.78680        1.02000
H         -0.83310       -0.57820        0.32730
H          1.18460       -0.17780       -2.03590
H          2.11550       -2.61920        0.47160
H          0.48490       -2.39430        1.17660
H         -0.57110       -4.06660       -1.27460
H         -0.85430       -2.82920       -2.60750
