14
gdb 13038	4.93518	1.24334	1.04173	0.5856	64.56	-0.2582	-0.041	0.2172	1069.685	0.104429	-382.495743	-382.487862	-382.486917	-382.528698	27.889
O         -0.14110       -0.02990        0.02330
C         -0.07620        1.15990        0.04670
C         -1.04610        2.33050        0.24470
O          0.06950        3.24350        0.19020
C          1.04650        2.20650       -0.05730
C          2.15950        2.12450        0.99310
C          3.08980        3.24240        0.91710
C          3.84950        4.16920        0.83350
H         -1.76420        2.47890       -0.57200
H         -1.57680        2.35420        1.20450
H          1.47900        2.29190       -1.06320
H          1.70520        2.07620        1.98990
H          2.69000        1.17580        0.83830
H          4.52270        4.98780        0.76940
