15
gdb 18779	4.11799	2.428	2.13229	2.5256	62.94	-0.2155	0.068	0.2835	684.6844	0.120373	-362.559969	-362.554292	-362.553348	-362.589296	23.769
O         -0.01170        1.32650       -0.09800
C          0.01800       -0.04040        0.03520
C          1.15940       -0.95090       -0.48760
C         -0.25250       -1.07070       -1.00710
N         -0.54790       -2.07900        0.09470
C          0.95720       -2.14510        0.44990
C          0.64660       -1.62590        1.86750
C         -0.53380       -0.94800        1.14980
H          0.72520        1.70500        0.39470
H          2.04290       -0.54760       -0.96640
H         -0.69470       -1.05520       -1.99490
H          1.49200       -3.07880        0.27180
H          0.30960       -2.43400        2.52180
H          1.38530       -1.00270        2.37930
H         -1.46960       -0.68490        1.64330
