10
gdb 21443	3.38615	2.5215	1.44528	1.7773	53.93	-0.2911	-0.083	0.2081	749.9675	0.060103	-446.722948	-446.716556	-446.715612	-446.754146	22.65
N         -0.03120        1.28000        0.32880
C         -0.03570        0.07300       -0.02240
O          1.11420       -0.58040       -0.42650
N          1.14820       -1.95380       -0.83370
N          0.09960       -2.60130       -0.82800
N         -1.07530       -2.04600       -0.44770
C         -1.29600       -0.74010       -0.02550
O         -2.38790       -0.35190        0.29020
H          0.90860        1.67790        0.27040
H         -1.86430       -2.67710       -0.48560
