11
gdb 19340	5.44231	1.70947	1.53499	3.954	55.64	-0.2821	-0.0264	0.2557	775.4534	0.070907	-397.300813	-397.294823	-397.293879	-397.330946	22.625
N          0.03660       -1.14830       -0.12450
C          0.06320        0.00600       -0.05190
C          0.06200        1.42100        0.10470
O          0.21600        2.28100       -1.02340
C          1.14470        2.41910        0.04000
C          0.45720        3.23910        1.20430
O         -0.86780        3.55880        0.78390
C         -0.62060        2.25670        1.27840
H          2.20020        2.29270       -0.16400
H          0.93440        3.85090        1.95780
H         -1.20990        1.86350        2.09610
