18
gdb 10073	3.42501	1.24877	0.97967	1.6774	70.18	-0.2509	0.0454	0.2963	1184.634	0.150725	-384.889961	-384.880307	-384.879363	-384.924869	33.995
C          0.15280        1.32160       -0.17470
O          0.02470       -0.08970       -0.20100
C         -1.28320       -0.60130        0.01190
C         -1.30010       -1.95820       -0.69950
O         -0.91200       -1.83220       -2.04720
C         -1.61690       -0.76700        1.51240
C         -1.97410        0.46330        2.20780
C         -2.29500        1.47130        2.77940
H          1.17620        1.54990       -0.48310
H         -0.54640        1.79910       -0.87650
H         -0.02240        1.73090        0.82590
H         -2.02140        0.06110       -0.46360
H         -0.64450       -2.65530       -0.14970
H         -2.31400       -2.37120       -0.68670
H         -0.11300       -1.29010       -2.02670
H         -2.45020       -1.47690        1.60280
H         -0.75210       -1.23690        1.99620
H         -2.57330        2.36140        3.28710
