19
gdb 2296	7.75867	1.28533	1.17847	0.9237	68.69	-0.25	0.0911	0.3411	1055.0762	0.171553	-310.897684	-310.889761	-310.888817	-310.930214	28.213
C          0.03810        1.37340       -0.04000
O          0.11090       -0.03050       -0.04320
C          0.57670       -0.56170        1.17970
C          0.64410       -2.06870        1.06170
C          1.71800       -2.70130        0.13330
C          1.94870       -3.79640        1.20990
C          1.25310       -2.87080        2.24580
H          1.02420        1.83540        0.13030
H         -0.33230        1.68660       -1.01950
H         -0.65010        1.74720        0.73560
H          1.57660       -0.15510        1.41770
H         -0.09390       -0.26850        2.00790
H         -0.35070       -2.44970        0.80750
H          1.40470       -3.01770       -0.86350
H          2.58700       -2.04310        0.03060
H          1.35640       -4.69400        1.00960
H          2.97760       -4.10150        1.41430
H          1.98130       -2.26980        2.80140
H          0.56390       -3.32560        2.96160
