18
gdb 18055	3.39823	2.21546	1.6093	1.7124	67.3	-0.2454	0.0863	0.3317	835.8766	0.156293	-384.92638	-384.919693	-384.918749	-384.957204	26.166
C          0.03450        1.54500        0.12270
O          1.46230        1.53450       -0.10110
C          1.40310        0.15600       -0.54120
C          2.51120       -0.72770        0.00410
C          2.26260       -1.11470        1.46730
C          0.81790       -1.58200        1.62880
O         -0.08900       -0.52170        1.35910
C         -0.02330        0.01170        0.05240
H         -0.23640        1.97500        1.09090
H         -0.50180        2.05840       -0.68670
H          1.38100        0.11600       -1.64050
H          2.55390       -1.63710       -0.61000
H          3.46890       -0.21130       -0.12420
H          2.95430       -1.90490        1.77860
H          2.42360       -0.25250        2.12310
H          0.61820       -2.44640        0.97150
H          0.60650       -1.89060        2.65630
H         -0.78320       -0.44940       -0.59150
