16
gdb 15845	2.60162	2.03571	1.32144	2.823	71.37	-0.24	-0.0252	0.2148	943.8247	0.128001	-346.581151	-346.572949	-346.572004	-346.613953	30.287
C         -0.29270        1.50870       -0.05010
C          0.01860        0.01790       -0.03210
C          1.23860       -0.38880       -0.91670
C          2.07500       -0.51500        0.36240
O          3.24210       -0.53700        0.60270
C          0.79510       -0.47910        1.25360
C          0.79200        0.29490        2.47080
C          0.80160        0.96080        3.47220
H          0.60830        2.10620        0.12680
H         -0.70660        1.80140       -1.02040
H         -1.01670        1.76990        0.72660
H         -0.88560       -0.56270       -0.22460
H          1.12320       -1.35580       -1.41710
H          1.59730        0.34140       -1.64670
H          0.52170       -1.52220        1.46230
H          0.81520        1.54200        4.36080
