16
gdb 5247	6.56802	1.06047	0.98302	2.3247	66.96	-0.2177	0.0313	0.249	1165.3907	0.132451	-379.956679	-379.948927	-379.947983	-379.989978	27.782
O          0.04270        1.42910        0.25870
C          0.01540        0.01320        0.25600
C         -1.35410       -0.54770       -0.17300
C         -1.39510       -2.04080       -0.14690
N         -0.99320       -2.84130       -1.11280
C         -1.15920       -4.12050       -0.63450
C         -1.66680       -4.09860        0.63600
N         -1.81030       -2.76170        0.93930
H         -0.01940        1.72730       -0.65440
H          0.79680       -0.41450       -0.38800
H          0.23700       -0.29290        1.28410
H         -2.12750       -0.12160        0.47610
H         -1.56820       -0.22060       -1.19610
H         -0.90900       -4.98230       -1.23430
H         -1.94010       -4.87480        1.33110
H         -2.17080       -2.38470        1.79970
