17
gdb 3604	4.92317	2.00128	1.72544	1.4416	63.55	-0.2439	0.0801	0.324	779.3468	0.148281	-309.680682	-309.673425	-309.672481	-309.712101	27.252
O         -0.43940        1.06470        1.32750
C         -0.08660        0.07330        0.40650
C         -0.72240       -1.26810        0.61690
C         -1.10890       -0.43570       -0.58950
C         -2.45350        0.20620       -0.75560
C         -3.72080       -0.62050       -0.76190
C         -3.45420        0.34430        0.36290
H         -0.61450        1.87590        0.83950
H          0.95620        0.10080        0.08900
H         -0.13210       -2.16400        0.46080
H         -1.42230       -1.32800        1.44280
H         -0.68310       -0.77970       -1.53030
H         -2.44610        1.03040       -1.46650
H         -4.49320       -0.38010       -1.48420
H         -3.62030       -1.67930       -0.54850
H         -3.20070       -0.05760        1.33610
H         -4.03690        1.25810        0.40690
