13
gdb 3304	6.03927	2.15839	1.91046	5.5166	57.92	-0.2509	0.0291	0.28	671.3095	0.103559	-303.462115	-303.456254	-303.455309	-303.491814	21.876
N          0.01800       -1.18840       -0.13990
C          0.02220       -0.03620       -0.04710
C          0.01010        1.41600        0.05430
C         -0.22700        2.07480        1.47280
C          1.11500        2.79490        1.30890
N          2.12900        1.72460        1.17980
C          1.36430        2.15000       -0.00840
H         -0.69450        1.82010       -0.67650
H         -1.09520        2.73500        1.46490
H         -0.28320        1.38420        2.31520
H          1.38320        3.78290        1.65920
H          3.04540        2.16710        1.12190
H          1.85690        2.51180       -0.90140
