9
gdb 23855	3.42094	2.4953	1.44285	2.9309	47.71	-0.2844	-0.091	0.1934	730.601	0.048327	-474.603125	-474.59732	-474.596376	-474.633506	20.648
F          0.03360        0.07250        0.00380
C         -0.01980        1.37950        0.01070
N         -1.19190        1.89320        0.02820
O         -1.21720        3.28750        0.03550
C         -0.05760        3.96260        0.02420
N          1.13210        3.50150        0.00690
C          1.28130        2.11040       -0.00200
O          2.33900        1.53700       -0.01820
H         -0.26360        5.03070        0.03220
