18
gdb 19432	3.89098	1.93165	1.61157	2.1542	71.49	-0.2341	0.0739	0.308	850.4145	0.157023	-343.943773	-343.937143	-343.936198	-343.974302	26.94
C         -0.00980        1.47750       -0.00470
N          1.24760        0.69770       -0.00090
C         -0.05240        0.00030        0.01600
C         -0.39090       -0.84100        1.24640
C         -0.28530       -2.31130        0.76210
C         -0.58940       -2.23690       -0.72600
N         -1.79590       -1.43530       -1.02790
C         -0.45000       -0.82770       -1.17290
H         -0.19840        2.03920        0.90660
H         -0.30630        1.98960       -0.91700
H          1.64320        0.68070       -0.93930
H          0.28370       -0.61490        2.07420
H         -1.41460       -0.62680        1.56320
H          0.73330       -2.69310        0.89620
H         -0.96580       -2.97800        1.30010
H         -0.33860       -3.06900       -1.37620
H         -2.13890       -1.68830       -1.95160
H         -0.09380       -0.55480       -2.16270
