20
gdb 16150	4.14437	1.60332	1.36331	0.2393	79.34	-0.2226	0.0252	0.2477	986.935	0.178133	-311.875063	-311.867424	-311.86648	-311.906731	30.207
C         -0.29490        1.49220       -0.06720
C          0.14040        0.02540        0.04910
C          0.84060       -0.49240       -1.18920
C          0.01360       -1.00790       -2.34150
C          0.87630       -1.97370       -1.54620
C          2.23230       -2.22020       -2.11370
C          2.96140       -1.10230       -2.14910
C          2.22430        0.07410       -1.54370
H          0.56510        2.15080       -0.22840
H         -0.98110        1.63160       -0.90920
H         -0.80330        1.82720        0.84230
H          0.80470       -0.09010        0.91630
H         -0.73860       -0.59870        0.25310
H         -1.06060       -1.05570       -2.18750
H          0.31510       -0.78620       -3.36070
H          0.38910       -2.72520       -0.93320
H          2.54890       -3.19020       -2.48050
H          3.95660       -1.01220       -2.56970
H          2.16480        0.92470       -2.23490
H          2.73930        0.44680       -0.64580
