16
gdb 21068	3.49515	2.00252	1.2939	2.7101	67.98	-0.207	0.0414	0.2485	929.1211	0.130397	-379.945764	-379.937171	-379.936226	-379.979517	29.593
C          0.04720        1.43320       -0.04190
N         -0.02780       -0.00900        0.00970
N         -0.17770       -0.74130       -1.12700
C         -0.14450       -2.00230       -0.71350
C          0.03480       -2.12370        0.68410
C          0.11300       -3.35320        1.53590
C          0.10690       -0.80400        1.09480
O          0.28530       -0.22730        2.30800
H          1.08350        1.78020       -0.12300
H         -0.50960        1.76490       -0.91840
H         -0.39630        1.85560        0.86210
H         -0.25180       -2.80220       -1.43340
H          0.81280       -3.22820        2.37250
H         -0.85640       -3.64050        1.96350
H          0.47220       -4.20680        0.95370
H          0.28120       -0.91930        2.97700
