17
gdb 19570	3.93364	1.99723	1.85013	2.4616	67.3	-0.2416	0.0759	0.3174	791.9453	0.144536	-363.803507	-363.797217	-363.796273	-363.833633	25.598
C          0.00050        1.56770       -0.00960
N          1.23270        0.73330        0.05490
C         -0.06430        0.09880        0.00840
C         -0.53910       -0.98120        0.98430
C         -2.07210       -0.95760        0.80910
C         -2.09690       -0.93740       -0.75810
C         -0.56900       -0.95600       -0.98060
O         -0.13570       -1.97190       -0.02060
H         -0.20030        2.14730        0.88760
H         -0.23350        2.08070       -0.93990
H          1.68680        0.70100       -0.85510
H         -0.09850       -1.13200        1.96850
H         -2.53530       -1.85360        1.22650
H         -2.53670       -0.07710        1.26090
H         -2.56990       -1.82460       -1.18380
H         -2.57720       -0.04770       -1.17380
H         -0.17010       -1.08480       -1.98770
