11
gdb 496	20.93178	1.40036	1.36378	2.4084	48.12	-0.274	-0.0464	0.2276	792.702	0.083388	-285.313674	-285.307112	-285.306168	-285.344659	21.004
O         -0.50300        0.61710        0.76240
C          0.05000        1.03650       -0.21810
C          1.35220        1.81310       -0.20580
C          1.24030        3.10930       -1.03870
C          2.52120        3.79940       -1.16270
N          3.54200        4.33270       -1.25310
H         -0.37240        0.86530       -1.23660
H          1.63540        2.02380        0.82750
H          2.12570        1.17200       -0.64880
H          0.86880        2.88310       -2.04550
H          0.51690        3.79330       -0.58120
