19
gdb 15788	3.6973	1.1735	0.99637	3.8089	72.8	-0.2289	-0.0134	0.2155	1203.889	0.163321	-365.037095	-365.028105	-365.027161	-365.071624	31.987
C         -0.11520        1.61860        0.19560
C          0.06500        0.09380        0.13590
C         -1.30780       -0.60850        0.11990
C         -1.22070       -2.10070        0.36410
O         -1.98410       -2.71440        1.06740
N          0.85290       -0.45380       -0.97860
C          0.96400        0.25390       -2.24820
C          2.13710        0.12210       -1.33640
H          0.83970        2.15010        0.14300
H         -0.75900        1.98300       -0.61140
H         -0.58890        1.89330        1.14260
H          0.60100       -0.21510        1.04370
H         -1.98950       -0.17820        0.85920
H         -1.75670       -0.45730       -0.87290
H         -0.38420       -2.60420       -0.16400
H          0.88210       -0.36380       -3.13840
H          0.52830        1.24520       -2.34460
H          2.47180        1.02610       -0.83120
H          2.92790       -0.59280       -1.54830
