16
gdb 18782	3.76142	2.29955	1.88609	3.1605	67.63	-0.2346	-0.0148	0.2199	746.5749	0.132477	-346.580731	-346.574775	-346.573831	-346.610641	24.152
O          0.02810        0.02580       -0.10440
C         -0.00180        1.21900        0.00420
C         -1.14460        2.24070        0.03500
C         -1.29400        2.89900        1.44030
C         -0.03210        3.76020        1.18720
C          1.29100        2.97200        1.34980
C          1.08110        2.30350       -0.04290
C         -0.07330        3.34270       -0.32690
H         -2.04800        2.00410       -0.52720
H         -2.19110        3.52380        1.45930
H         -1.30680        2.24070        2.31450
H         -0.04840        4.78810        1.54920
H          2.15070        3.64640        1.30730
H          1.40190        2.31710        2.21970
H          1.95490        2.11710       -0.66730
H         -0.12200        3.99850       -1.19090
