17
gdb 19918	4.69136	1.46426	1.3305	1.8418	67.52	-0.2209	0.0633	0.2842	949.7797	0.142529	-363.74805	-363.74087	-363.739926	-363.779542	27.81
O         -0.14170        1.26080       -0.96550
C          0.12400        0.15450       -0.11010
C         -1.19680       -0.59400        0.02860
C         -1.54190       -2.02520       -0.26980
C         -0.64060       -3.05610        0.43650
C          0.40490       -2.52070        1.33780
N         -0.99410       -2.53690        1.80360
C         -1.80120       -1.45440        1.11480
H          0.67870        1.74820       -1.08640
H          0.89920       -0.49200       -0.54490
H          0.48150        0.50090        0.87290
H         -1.98770        0.05660       -0.34460
H         -2.24980       -2.31770       -1.03460
H         -0.71900       -4.11720        0.22190
H          1.00730       -3.25970        1.86080
H          0.91880       -1.58720        1.16100
H         -2.72990       -1.18390        1.60210
