13
gdb 5216	8.31172	1.1951	1.04522	4.8992	70.76	-0.1996	-0.018	0.1816	1046.9521	0.097228	-394.819238	-394.812243	-394.811298	-394.850668	25.282
N          0.00480        1.35200        0.17130
C          0.09280       -0.00360        0.22230
N          1.06610       -0.63430       -0.32600
C          1.16940       -1.98630       -0.21270
C          2.08370       -2.87120       -0.69950
N          1.74590       -4.16020       -0.30790
C          0.66700       -4.00890        0.38430
O          0.23820       -2.72700        0.49930
H          0.63150        1.83580       -0.45330
H         -0.87170        1.79730        0.37940
H         -0.70500       -0.48740        0.79180
H          2.95270       -2.65960       -1.30000
H          0.07290       -4.76350        0.87590
