17
gdb 1242	6.57424	1.25235	1.11495	1.3646	67.44	-0.252	0.0361	0.2881	1071.282	0.144776	-309.677968	-309.669192	-309.668248	-309.711516	30.851
C          0.06120        1.49000       -0.10740
C          0.00590       -0.03530        0.02010
C          0.64690       -0.52700        1.31270
O         -1.33480       -0.52330        0.03410
C         -1.98340       -0.49440       -1.22120
C         -3.25950       -1.19420       -1.13190
C         -4.31670       -1.76190       -1.08640
H          1.09940        1.83580       -0.08020
H         -0.37670        1.84060       -1.04650
H         -0.48160        1.95720        0.72050
H          0.53510       -0.48480       -0.83820
H          0.12640       -0.10430        2.17780
H          0.58790       -1.61640        1.37700
H          1.69810       -0.22770        1.36050
H         -2.16320        0.53790       -1.56160
H         -1.35390       -0.97410       -1.99090
H         -5.24970       -2.26680       -1.03940
