17
gdb 7985	3.55123	1.71976	1.25634	2.8907	65.76	-0.266	0.0212	0.2871	970.1869	0.142743	-401.027851	-401.020106	-401.019162	-401.059835	29.282
C         -0.07460        1.50060        0.13520
C          0.01460        0.01390       -0.14920
C          1.09950       -0.41900       -1.14610
C          1.42320       -1.83590       -0.66320
O          2.70870       -2.29030       -0.98230
C          1.21300       -1.69330        0.83320
N          1.81170       -2.42080        1.67380
O          0.35730       -0.67840        1.09030
H          0.88960        1.88440        0.48120
H         -0.35630        2.03820       -0.77560
H         -0.82650        1.70580        0.90200
H         -0.96610       -0.36680       -0.46400
H          0.76040       -0.36970       -2.18230
H          1.99380        0.20420       -1.03760
H          0.65670       -2.53390       -1.04480
H          3.02470       -2.74520       -0.18690
H          1.58640       -2.16980        2.63600
