17
gdb 1269	6.50128	1.03506	0.95869	1.8282	69.76	-0.2487	0.0417	0.2904	1252.8656	0.14603	-309.69664	-309.687536	-309.686592	-309.733027	31.088
C          0.03200        1.53720       -0.21700
C         -0.03070        0.06340        0.22380
C         -1.38490       -0.48090        0.21590
C         -2.51620       -0.89670        0.19310
C         -3.87790       -1.44090        0.21400
C         -3.89860       -2.92820       -0.16820
O         -4.51930       -1.21760        1.46980
H          1.06430        1.89890       -0.19330
H         -0.35160        1.65460       -1.23410
H         -0.57020        2.16580        0.44440
H          0.60850       -0.54380       -0.43010
H          0.39280       -0.03630        1.23160
H         -4.49380       -0.88720       -0.50530
H         -3.29070       -3.51070        0.53170
H         -4.92660       -3.29880       -0.13480
H         -3.49560       -3.07800       -1.17410
H         -3.92110       -1.53590        2.15500
