17
gdb 7807	3.5237	1.79414	1.24838	4.5042	65.54	-0.2333	0.0134	0.2467	959.0679	0.143254	-401.024843	-401.017342	-401.016398	-401.056702	27.784
C          0.01250        1.48520       -0.01050
N         -0.00010        0.03330       -0.06470
C          0.78610       -0.51130       -1.15680
C          0.50550       -1.99900       -1.24590
O          0.75780       -2.69100       -0.01180
C          0.60400       -2.06970        1.17780
O          0.67880       -2.70300        2.19450
C          0.43060       -0.55450        1.19350
H          1.02250        1.90310        0.16300
H         -0.37070        1.89370       -0.95030
H         -0.63720        1.82840        0.80060
H          0.48170       -0.03990       -2.09720
H          1.87260       -0.33050       -1.03040
H         -0.54330       -2.16190       -1.51810
H          1.14390       -2.48230       -1.98970
H          1.40940       -0.15250        1.52920
H         -0.28750       -0.32570        1.98560
