11
gdb 5353	6.07584	1.65313	1.29955	6.1189	65.05	-0.2812	-0.0795	0.2016	844.1499	0.075174	-356.501918	-356.496052	-356.495108	-356.532068	21.294
N          0.01760       -1.13520       -0.00360
C          0.00170        0.02020        0.00290
C         -0.01790        1.46720        0.01100
N         -1.22390        2.04090        0.03010
C         -1.22750        3.37440        0.03700
C         -0.05390        4.12100        0.02520
C          1.13950        3.40670        0.00540
N          1.17210        2.07350       -0.00190
H         -2.20290        3.85380        0.05260
H         -0.06860        5.20390        0.03100
H          2.10150        3.91250       -0.00490
