16
gdb 7656	4.71782	1.28781	1.11391	3.4298	62.38	-0.236	0.0556	0.2917	1049.2632	0.13087	-417.073955	-417.06575	-417.064806	-417.106995	29.693
N         -0.06720        1.37240        0.19530
C          0.03150       -0.01210        0.18690
O          1.09310       -0.60670        0.15920
N         -1.18230       -0.66180        0.18840
C         -2.46210       -0.22230       -0.39500
C         -2.81080       -1.70750       -0.64890
O         -3.18760       -1.93610       -1.98220
C         -1.34650       -2.05640       -0.23810
H          0.80270        1.82570        0.42980
H         -0.88230        1.78580        0.62200
H         -3.11830        0.32780        0.28780
H         -2.35220        0.33520       -1.33220
H         -3.55440       -2.09880        0.05630
H         -3.35690       -2.87690       -2.09550
H         -0.71490       -2.32050       -1.09330
H         -1.21120       -2.79290        0.55940
