15
gdb 21526	3.2931	1.83343	1.20418	3.6311	64.28	-0.1919	0.0273	0.2193	950.6802	0.120725	-395.983516	-395.975537	-395.974593	-396.016242	28.554
N          0.05570        1.48290        0.03730
C          0.00620        0.07500        0.00600
C         -1.11460       -0.73580        0.07410
C         -2.57190       -0.43840        0.16900
O         -3.28020       -1.53350       -0.40490
N         -0.64530       -2.01540        0.10930
N          0.68820       -2.09810        0.04350
C          1.09410       -0.82940       -0.00500
H          0.91850        1.83330       -0.36020
H         -0.71700        1.90910       -0.46140
H         -2.87410       -0.29420        1.21960
H         -2.79320        0.50590       -0.35540
H         -4.20490       -1.45720       -0.15200
H         -1.21220       -2.84480        0.06020
H          2.14920       -0.59930       -0.04820
