15
gdb 1707	3.88642	2.40931	1.94777	1.1014	62.65	-0.2553	0.0316	0.2869	715.7321	0.12361	-308.47001	-308.462763	-308.461819	-308.50084	27.388
O          0.16350        1.52740       -0.26570
C          0.00360        0.15000        0.01650
C          0.15300       -0.29930        1.51320
C         -1.16310       -1.10570        1.36440
C         -1.49320       -0.26820        0.10170
C          0.79120       -0.67460       -0.89570
C          1.47310       -1.33050       -1.63850
H          1.09010        1.68510       -0.47680
H          1.06330       -0.83270        1.79260
H          0.02690        0.57860        2.15200
H         -0.97350       -2.15360        1.12060
H         -1.87280       -1.06070        2.19190
H         -2.08460        0.61930        0.34030
H         -1.92170       -0.77060       -0.76650
H          2.06360       -1.91410       -2.30110
