15
gdb 18906	3.51071	2.78991	2.24065	0.459	62.38	-0.244	0.0638	0.3078	677.3155	0.11977	-362.569546	-362.563734	-362.56279	-362.599119	23.592
C         -0.12140        1.54170        0.01450
C         -0.02370        0.05330        0.00740
C          0.76090       -0.87570       -0.96870
O          1.75750       -1.18510        0.03040
C          0.72760       -0.88720        0.99870
C         -0.46150       -1.84150        0.73270
C         -0.43630       -1.83280       -0.75430
N         -1.28500       -0.83550       -0.01910
H          0.87760        1.98960        0.03370
H         -0.64620        1.89940       -0.87760
H         -0.67560        1.88910        0.89260
H          1.15700       -0.64930       -1.95650
H          1.08990       -0.67240        2.00190
H         -0.90650       -2.61150        1.34900
H         -0.86010       -2.59550       -1.39430
