18
gdb 9483	2.858	1.68688	1.5055	4.475	72.19	-0.2556	0.0284	0.284	951.442	0.15404	-343.985744	-343.97726	-343.976315	-344.018271	31.726
C         -0.62820        1.27270        0.00830
C          0.14960       -0.02760       -0.09280
C          1.52630       -0.06880       -0.81140
C          2.02890       -1.06920        0.26060
C          0.84980       -0.61110        1.19580
N          1.15660        0.42140        2.18330
C          0.12950       -1.69520        1.86410
N         -0.42690       -2.57840        2.36100
H         -0.02600        2.07920        0.43600
H         -0.95730        1.59060       -0.98690
H         -1.51560        1.15490        0.63740
H         -0.49220       -0.81150       -0.50570
H          1.53480       -0.40430       -1.84990
H          2.04430        0.89430       -0.75990
H          1.92040       -2.10840       -0.05770
H          3.03020       -0.92590        0.67380
H          1.71570        0.02450        2.93350
H          1.72060        1.14880        1.75350
