18
gdb 12502	3.58189	1.8919	1.34135	0.2419	83.77	-0.2093	-0.0234	0.1859	949.5587	0.155291	-310.695403	-310.688046	-310.687102	-310.726602	28.812
C         -0.11770        1.55270        0.02830
C          0.08100        0.05540       -0.01450
C          0.03730       -0.60670       -1.20530
C          0.07700       -2.03690       -1.40630
C          0.72670       -2.92470       -0.63160
C          1.63830       -2.48190        0.48540
C          0.79920       -1.77950        1.52140
C          0.17100       -0.61740        1.27040
H          0.74690        2.05570        0.47810
H         -0.26950        1.96940       -0.97060
H         -0.98730        1.81770        0.64270
H         -0.16660       -0.00870       -2.09200
H         -0.48340       -2.40980       -2.26160
H          0.60650       -3.98910       -0.81310
H          2.16930       -3.33150        0.92080
H          2.39150       -1.78630        0.08890
H          0.70520       -2.23370        2.50440
H         -0.33840       -0.12180        2.09580
