12
gdb 21447	6.21336	1.48077	1.19579	6.3944	62.34	-0.2364	-0.034	0.2024	915.238	0.084302	-410.810537	-410.803618	-410.802673	-410.842366	24.425
N          0.19820        1.35660        0.00560
C          0.05190        0.10000        0.00230
N         -1.18700       -0.53250        0.01230
C         -2.44200        0.01750        0.02710
C         -3.66120       -0.62320        0.03720
N         -4.60550        0.35900        0.05030
N         -4.10280        1.50230        0.04930
O         -2.62630        1.31970        0.03380
H          1.18690        1.59720       -0.00350
H          0.85360       -0.64770       -0.00870
H         -1.16930       -1.53930        0.00810
H         -3.90560       -1.67110        0.03600
