14
gdb 19565	4.23095	2.14194	1.94166	0.3068	60.99	-0.2451	-0.0057	0.2394	721.4442	0.107464	-382.455752	-382.449903	-382.448958	-382.485448	23.612
C          0.04910        1.49890        0.00970
O          1.23520        0.65580       -0.00710
C         -0.01400        0.04820        0.00250
C         -0.61370       -0.99470        0.98730
O         -1.70130       -1.11530        0.01350
C         -0.63390       -0.98400       -0.98110
C          0.23170       -2.21580       -0.68070
C          0.24540       -2.22310        0.65580
H         -0.10900        2.05020        0.93470
H         -0.12790        2.06020       -0.90580
H         -0.92830       -0.78270        2.00720
H         -0.96930       -0.76100       -1.99190
H          0.71490       -2.86260       -1.39710
H          0.74300       -2.87770        1.35510
