11
gdb 23691	3.75963	2.06126	1.33134	1.4725	58.61	-0.2373	-0.0726	0.1647	808.338	0.072473	-438.698536	-438.692499	-438.691555	-438.728947	22.465
F          0.07570        0.04980        0.09330
C         -0.08230        1.34390       -0.03970
C         -1.23090        2.00560        0.17290
N         -1.27300        3.37940       -0.00140
C         -0.19760        3.98380       -0.36560
C          1.08280        3.32070       -0.61270
N          2.13890        3.91380       -0.97020
O          1.05590        1.92610       -0.41750
H         -2.13060        1.49180        0.47860
H         -0.20560        5.06020       -0.50860
H          2.91920        3.26770       -1.08810
