20
gdb 11405	5.4296	1.17311	1.00966	0.8417	78.11	-0.2278	0.0319	0.2597	1209.9123	0.17653	-349.016152	-349.00748	-349.006536	-349.049529	31.786
C          0.11390        1.32400        0.13420
O         -0.19570       -0.01820       -0.15630
C          0.57900       -0.56860       -1.20180
C          2.06820       -0.84540       -0.84240
C          2.33530       -2.16470       -1.52150
C          1.21980       -2.76900       -1.93850
C          1.10510       -4.10050       -2.60960
C         -0.00110       -1.93940       -1.60450
H          1.14170        1.44580        0.50780
H         -0.00700        1.96980       -0.75070
H         -0.58000        1.65730        0.91020
H          0.54800        0.11030       -2.06990
H          2.74190       -0.04600       -1.17140
H          2.17660       -0.92420        0.24910
H          3.33320       -2.58040       -1.62010
H          2.08440       -4.56350       -2.75940
H          0.48920       -4.79050       -2.01810
H          0.61540       -4.01180       -3.58800
H         -0.55190       -2.36580       -0.75460
H         -0.71380       -1.86570       -2.43410
