17
gdb 15582	3.17334	1.82429	1.27822	3.0149	67.62	-0.2738	0.0279	0.3017	947.9999	0.143527	-363.884577	-363.876758	-363.875814	-363.918343	28.271
C         -0.15710        1.57880       -0.05200
C          0.04480        0.06490       -0.02300
C          0.94370       -0.45580       -1.17030
O          1.64030       -1.57930       -0.65720
C          2.02240       -1.22260        0.65170
C          0.77000       -0.51610        1.24960
C          1.11260        0.46280        2.27260
N          1.39840        1.23400        3.08530
H          0.79410        2.11170        0.04410
H         -0.61760        1.87890       -0.99900
H         -0.80870        1.91470        0.75890
H         -0.93080       -0.42430       -0.08890
H          0.38170       -0.77880       -2.04940
H          1.65320        0.33050       -1.47760
H          2.30520       -2.12700        1.19330
H          2.87680       -0.52830        0.64590
H          0.12640       -1.26760        1.71520
