22
gdb 9428	5.73086	0.78956	0.73431	0.2702	76.74	-0.2485	0.0896	0.3381	1627.5292	0.196931	-387.32887	-387.318164	-387.31722	-387.365469	36.58
C          0.70570        0.98570       -1.00420
C         -0.04980        0.12140       -0.00890
O          0.88140       -0.46880        0.87460
C          0.28340       -1.29300        1.84860
C          1.37990       -1.85350        2.75320
C          2.13880       -0.74840        3.48780
O          0.70960       -2.74350        3.63380
C          1.54990       -3.64770        4.31010
H          1.41760        0.38180       -1.57400
H          0.01030        1.45720       -1.70510
H          1.26200        1.77150       -0.48520
H         -0.77790        0.72740        0.55670
H         -0.62400       -0.66150       -0.53290
H         -0.44060       -0.72570        2.45790
H         -0.26100       -2.12920        1.38270
H          2.08410       -2.41990        2.12080
H          2.97360       -1.14670        4.07130
H          2.53710       -0.03530        2.76220
H          1.46390       -0.21750        4.16760
H          2.16370       -4.23490        3.60850
H          2.22420       -3.14980        5.02180
H          0.90430       -4.33120        4.86770
