18
gdb 19203	2.65392	2.61093	2.56995	1.5082	70.4	-0.2335	0.0153	0.2488	731.5965	0.157889	-347.816037	-347.809937	-347.808993	-347.845849	25.404
C         -0.02890        1.54540        0.01480
C          1.43320        2.07070       -0.00920
C          2.37110        0.84440       -0.05470
O          2.14560        0.07920        1.14860
C          0.82810       -0.46080        1.21240
C          0.00540       -0.00800       -0.01560
C          0.77170       -0.44340       -1.24040
C          2.02730        0.00760       -1.26300
H         -0.54590        1.87740        0.92140
H         -0.60030        1.91960       -0.83860
H          1.61680        2.71780       -0.87210
H          1.65980        2.64750        0.89240
H          3.42200        1.13550       -0.01790
H          0.88960       -1.55680        1.25420
H          0.34930       -0.10970        2.13800
H         -1.00230       -0.42720        0.03100
H          0.32890       -1.07750       -2.00080
H          2.74990       -0.19640       -2.04500
