18
gdb 10086	3.08366	1.29819	1.05482	4.0641	64.7	-0.2523	-0.0273	0.225	1136.7487	0.151273	-422.074858	-422.065403	-422.064459	-422.109301	32.969
O          0.71960        0.28220        0.77300
C         -0.15510        0.46220       -0.32630
C         -1.45950       -0.34740       -0.21160
C         -2.24260       -0.30370       -1.52390
O         -2.52930        1.05280       -1.82400
C         -1.19350       -1.79650        0.21540
C         -1.01720       -2.00390        1.70150
O         -1.06050       -1.13960        2.54310
H          0.19770        0.36190        1.58080
H         -0.40350        1.51970       -0.48260
H          0.40350        0.12610       -1.21050
H         -2.08550        0.12070        0.55880
H         -1.64780       -0.77260       -2.32630
H         -3.16920       -0.89120       -1.41770
H         -2.96780        1.08960       -2.67880
H         -2.01870       -2.46200       -0.08330
H         -0.30140       -2.21120       -0.27570
H         -0.85750       -3.06510        1.99600
