20
gdb 9720	2.65584	1.90137	1.58798	0.5855	79.44	-0.2555	0.0579	0.3134	948.4715	0.177072	-311.8587	-311.850176	-311.849231	-311.891492	32.592
C         -0.11850        1.56850       -0.00730
C          0.03500        0.03810        0.00420
C          0.87270       -0.49770       -1.18980
C          1.33420       -1.90580       -0.75970
C          1.33330       -1.89420        0.79860
C          0.87120       -0.47970        1.20710
C         -1.28950       -0.59160        0.00810
C         -2.37780       -1.10420        0.01130
H          0.86670        2.04660       -0.01030
H         -0.66590        1.90130       -0.89410
H         -0.66700        1.91450        0.87370
H          0.31170       -0.49400       -2.12760
H          1.73530        0.16730       -1.31810
H          0.63830       -2.66220       -1.13210
H          2.31670       -2.14800       -1.17350
H          0.63700       -2.64500        1.18140
H          2.31530       -2.13010        1.21720
H          1.73370        0.18710        1.32640
H          0.30910       -0.46210        2.14400
H         -3.33910       -1.55520        0.01410
