11
gdb 4656	7.09874	1.35768	1.1407	6.05	59.89	-0.2368	-0.0325	0.2043	938.9165	0.074072	-393.628214	-393.621653	-393.620709	-393.658902	24.039
N          0.04370        1.33320        0.14450
C         -0.05300       -0.02260        0.04570
N         -1.12400       -0.75260        0.02740
C         -0.62310       -2.05770       -0.00070
C          0.73290       -2.03020       -0.00600
O          1.11650       -0.71530        0.02480
C         -1.45790       -3.20510       -0.02580
N         -2.12220       -4.15240       -0.04780
H          0.88180        1.74480       -0.23650
H         -0.80840        1.82260       -0.08240
H          1.51160       -2.77080       -0.03150
