17
gdb 20992	3.45797	2.02828	1.30994	5.7921	70.68	-0.2353	0.0267	0.262	939.8263	0.142073	-360.080645	-360.072037	-360.071093	-360.115082	29.767
C          0.09530        1.46110        0.00990
N          0.01370        0.01430        0.00200
C         -0.01250       -0.81990       -1.09080
C         -0.00750       -0.35670       -2.50610
N         -0.04660       -2.06930       -0.69970
N         -0.03810       -2.07720        0.68050
C          0.00100       -0.83230        1.08540
C          0.02350       -0.38530        2.50570
H          1.13480        1.80790        0.00730
H         -0.40820        1.86540       -0.87050
H         -0.40050        1.85540        0.89920
H          0.89140        0.22180       -2.74800
H         -0.03650       -1.23610       -3.15090
H         -0.87710        0.26950       -2.73810
H          0.92530        0.19050        2.74310
H         -0.84320        0.23820        2.75560
H          0.00230       -1.27200        3.14080
