16
gdb 10595	2.9714	1.76259	1.32317	0.7415	67.5	-0.2539	-0.0451	0.2089	946.1145	0.127904	-383.756382	-383.748054	-383.74711	-383.788923	29.864
C          0.02250        1.37900       -0.02390
C          0.21070       -0.11530        0.05320
C          1.51910       -0.76460       -0.09660
C          0.88510       -0.79050        1.30750
C          1.48070        0.05790        2.36290
O          2.17680        1.02940        2.17500
C          0.25590       -2.06160        1.73770
O         -0.20610       -2.88590        0.98350
H          0.88170        1.91300        0.38450
H         -0.10000        1.67050       -1.07290
H         -0.87520        1.69520        0.51610
H         -0.63630       -0.71750       -0.26530
H          1.56870       -1.73530       -0.57700
H          2.39890       -0.13330       -0.16530
H          1.23890       -0.27020        3.39950
H          0.22730       -2.21830        2.83950
