21
gdb 6727	6.46703	0.7444	0.69868	2.7327	80.85	-0.2455	0.0276	0.2731	1691.0948	0.185874	-366.267864	-366.25756	-366.256616	-366.304176	35.58
C         -0.02440        1.38330       -0.05900
N          0.03390       -0.04730        0.15170
C         -1.03490       -0.69540        0.01250
O         -1.05690       -2.03270        0.16970
C         -2.33870       -2.66090        0.09350
C         -2.13780       -4.17120       -0.00390
C         -3.49540       -4.88210        0.05920
C         -1.35490       -4.55050       -1.26650
H          0.66520        1.66640       -0.86270
H         -1.02810        1.75960       -0.31880
H          0.31300        1.90320        0.84510
H         -2.00910       -0.25060       -0.24900
H         -2.92470       -2.40780        0.98790
H         -2.88610       -2.29140       -0.78670
H         -1.54670       -4.46860        0.87220
H         -4.12890       -4.60060       -0.79050
H         -3.36470       -5.96780        0.02570
H         -4.03910       -4.63870        0.97830
H         -1.16070       -5.62720       -1.29470
H         -1.92180       -4.29090       -2.16910
H         -0.39710       -4.02670       -1.30510
