17
gdb 14446	4.18325	2.08024	1.77859	2.2999	66.65	-0.2155	0.0756	0.2911	781.373	0.144401	-363.815459	-363.80909	-363.808146	-363.845466	26.215
O         -0.11490        1.39350       -0.03290
C          0.04770        0.02170       -0.02130
C          0.85330       -0.79650       -1.02030
N         -0.13410       -1.93090       -0.85160
C          0.38030       -2.88580        0.15230
C          0.58800       -2.07770        1.47080
C         -0.26220       -0.83980        1.20800
C         -1.03150       -1.01830       -0.08090
H          0.56990        1.78550        0.52010
H          0.79570       -0.39020       -2.03420
H          1.89550       -1.04710       -0.78600
H         -0.37450       -3.66570        0.29700
H          1.29190       -3.36380       -0.21680
H          0.23880       -2.62590        2.35140
H          1.64240       -1.83390        1.63960
H         -0.73900       -0.30150        2.01980
H         -2.10200       -0.97500       -0.23200
