17
gdb 19913	4.21228	1.75455	1.56495	1.5006	67.85	-0.2226	0.0605	0.2831	871.0993	0.142033	-363.747524	-363.74035	-363.739406	-363.779005	27.381
C          0.24640        1.27190       -0.17320
O         -0.42510        0.12450        0.31630
C          0.36640       -0.61620        1.19250
C          0.11580       -2.02270        1.60690
C         -0.09780       -3.02380        0.45790
C         -0.07830       -2.46200       -0.90810
N          1.20850       -2.68070       -0.19490
C          1.42500       -1.64220        0.88110
H          1.14080        1.00210       -0.75160
H         -0.45550        1.80380       -0.81880
H          0.55050        1.93760        0.64870
H          0.69530       -0.01920        2.05060
H         -0.04660       -2.29740        2.64160
H         -0.34500       -4.06000        0.66590
H         -0.19210       -3.17570       -1.72020
H         -0.44260       -1.46460       -1.09990
H          2.43850       -1.55890        1.25650
