13
gdb 1054	7.52485	2.00997	1.6151	1.6418	54.6	-0.2412	0.0052	0.2464	730.6555	0.104021	-340.659506	-340.653104	-340.652159	-340.690582	22.424
N          0.31380        1.21340       -0.54180
C         -0.15510        0.26470        0.45730
C         -1.48820       -0.36290        0.15690
N         -2.25500       -0.16290       -0.86750
C         -3.35450       -0.98850       -0.64770
C         -3.18380       -1.65040        0.51750
O         -1.98490       -1.25870        1.04990
H          0.35100        0.74710       -1.44450
H         -0.38780        1.94000       -0.65840
H          0.59030       -0.53160        0.57780
H         -0.21270        0.76510        1.43220
H         -4.17670       -1.03940       -1.34340
H         -3.75080       -2.37190        1.07980
