12
gdb 852	7.5174	2.03418	1.60388	2.7516	52.68	-0.1779	0.0453	0.2232	710.6391	0.090519	-360.528914	-360.522283	-360.521339	-360.559077	24.468
N          0.05250        1.36970       -0.14980
C         -0.07190       -0.00910       -0.06530
C         -1.14340       -0.85410       -0.10720
C         -0.57790       -2.17680       -0.06530
O         -1.24810       -3.36050       -0.07990
C          0.77040       -2.04350       -0.00010
O          1.08520       -0.69200        0.00060
H          0.89850        1.70670        0.29170
H         -0.75710        1.86330        0.19920
H         -2.18620       -0.58380       -0.16380
H         -2.18830       -3.17850       -0.16060
H          1.59550       -2.72900        0.04970
