20
gdb 14100	3.13521	1.639	1.37148	1.7304	75.23	-0.2509	0.0788	0.3297	1019.2403	0.175682	-348.988462	-348.979899	-348.978955	-349.02125	32.188
C         -0.01500        1.56030       -0.10600
C         -0.03130        0.06160        0.04390
O          1.22920       -0.61860       -0.10820
C          0.60470       -0.64320        1.16350
C          1.19200       -0.06970        2.45560
C          0.36030       -1.13810        3.22550
C          0.14460       -1.91640        1.88940
C         -1.21760       -2.51830        1.58260
H          0.82280        2.00000        0.44090
H          0.08200        1.83950       -1.16040
H         -0.94760        1.99500        0.27090
H         -0.85690       -0.44380       -0.46130
H          2.26860       -0.25300        2.51860
H          1.00060        0.98220        2.68090
H          0.86450       -1.67170        4.03310
H         -0.57850       -0.72750        3.60840
H          0.92650       -2.67740        1.77650
H         -2.01320       -1.77300        1.69200
H         -1.25800       -2.90770        0.55940
H         -1.44250       -3.34870        2.26070
