16
gdb 14723	13.18867	0.55996	0.54262	4.1806	74.2	-0.2654	-0.0601	0.2053	1938.5859	0.127375	-383.706237	-383.696639	-383.695695	-383.742582	30.826
C          0.04280        1.38270        0.00880
O          0.00450       -0.02620        0.00190
C         -1.30410       -0.54020        0.01160
C         -1.18940       -2.06910        0.00260
C         -2.48030       -2.73550        0.01130
C         -3.55690       -3.28370        0.01890
C         -4.85460       -3.90650        0.02810
O         -5.04440       -5.10130        0.02210
H          1.09400        1.67920        0.00060
H         -0.45510        1.80800       -0.87640
H         -0.43850        1.79870        0.90750
H         -1.85540       -0.20790        0.90630
H         -1.87220       -0.19890       -0.86910
H         -0.61840       -2.37750       -0.88170
H         -0.60200       -2.38650        0.87290
H         -5.70020       -3.18850        0.04180
