16
gdb 8568	4.17386	2.0238	1.71732	3.706	64.01	-0.215	0.0243	0.2393	780.8963	0.133633	-379.920472	-379.914141	-379.913197	-379.950918	25.244
O          0.01980       -0.05530        0.05890
C         -0.00290        1.15810        0.02070
C         -1.31280        1.98000       -0.00550
N         -1.14100        3.44480       -0.05190
C         -0.09440        3.75470       -1.09800
C          0.98560        3.39950       -0.04990
C         -0.09500        3.82030        0.97300
N          1.11540        1.94720       -0.00380
H         -1.89350        1.65460       -0.87470
H         -1.89390        1.71030        0.88220
H         -0.13920        3.14850       -2.00650
H         -0.12930        4.81780       -1.35040
H          1.97150        3.86950       -0.06460
H         -0.13000        4.89730        1.15740
H         -0.14020        3.27290        1.91800
H          2.01490        1.49270        0.01030
