18
gdb 13028	2.55454	2.44069	1.58753	1.6516	66.8	-0.247	0.0699	0.317	859.3798	0.154456	-384.934796	-384.927196	-384.926252	-384.966108	30.118
O         -0.07640        1.44420        0.00590
C         -0.00650        0.02220        0.01300
C          0.67580       -0.58690        1.25760
C         -0.00480       -1.96230        1.45440
C         -1.40890       -1.77590        0.88980
C         -2.16900       -0.53200        1.31620
C         -1.40710       -0.55710        0.01360
O         -2.10100       -0.54890       -1.19520
H          0.80830        1.78810       -0.15070
H          0.48520       -0.33400       -0.90610
H          1.76110       -0.66590        1.14660
H          0.48510        0.07390        2.10910
H          0.51820       -2.73530        0.87930
H          0.00150       -2.28180        2.50220
H         -1.98990       -2.64620        0.60680
H         -3.24700       -0.58210        1.21320
H         -1.81910        0.06780        2.14970
H         -2.29320        0.37360       -1.39980
