22
gdb 5988	4.22973	1.05896	1.03826	2.1098	75.35	-0.2551	0.0753	0.3304	1285.1279	0.197168	-387.340255	-387.329811	-387.328867	-387.375284	37.668
C         -0.20670        1.53900        0.00840
C          0.05110        0.02900       -0.00840
C          0.82690       -0.49660        1.20980
C          2.22420        0.13250        1.33780
O          0.04180       -0.18410        2.36120
C          0.94330       -2.02600        1.11580
O          1.47160       -2.48970        2.34580
C          1.53100       -3.89350        2.43950
H          0.72050        2.11320       -0.07930
H         -0.85110        1.82620       -0.82800
H         -0.70080        1.83150        0.93810
H         -0.91080       -0.49640       -0.03880
H          0.59560       -0.24970       -0.91940
H          2.14180        1.19990        1.55230
H          2.77410       -0.34230        2.15460
H          2.80520        0.00450        0.41760
H          0.38410       -0.74140        3.07100
H         -0.05380       -2.46260        0.94700
H          1.59510       -2.32330        0.27840
H          1.93620       -4.14010        3.42390
H          0.53450       -4.35050        2.33790
H          2.18690       -4.32360        1.66710
