18
gdb 16010	4.09951	1.78795	1.44058	1.1812	74.9	-0.2296	0.0224	0.252	907.3923	0.155489	-347.794825	-347.787866	-347.786922	-347.825748	27.669
C          0.02930        1.52530        0.02710
C          1.33200        0.77600       -0.01920
C          0.02010        0.01320       -0.01250
C         -0.41150       -0.73320        1.23670
O         -0.14040       -2.12020        1.12600
C         -0.87780       -2.73220        0.08430
C         -0.85840       -1.94450       -1.19870
C         -0.41440       -0.68880       -1.24310
H         -0.25440        2.00560        0.95870
H         -0.29410        2.05760       -0.86150
H          1.90380        0.79350       -0.94070
H          1.93740        0.73720        0.88060
H          0.12960       -0.38160        2.12060
H         -1.48930       -0.56950        1.40880
H         -0.42310       -3.71850       -0.06660
H         -1.92280       -2.91090        0.40220
H         -1.21690       -2.44970       -2.09120
H         -0.37040       -0.14300       -2.18290
