17
gdb 2215	3.44206	3.20206	2.24069	1.2177	63.23	-0.2444	0.0766	0.321	669.785	0.148619	-309.692095	-309.685244	-309.684299	-309.723696	26.073
O         -0.02760        1.41080       -0.24090
C          0.00410        0.03240        0.00690
C          0.49340       -0.89450       -1.14200
C         -0.83840       -1.70340       -1.04590
C         -1.33600       -0.77440        0.09360
C         -0.94870       -1.24420        1.52140
C          0.38240       -0.43240        1.44200
H          0.88090        1.73350       -0.25830
H          0.58990       -0.34530       -2.08190
H          1.41950       -1.44720       -0.95790
H         -1.44160       -1.65020       -1.95490
H         -0.73460       -2.75590       -0.76790
H         -2.31030       -0.30240       -0.03260
H         -1.62450       -0.88880        2.30240
H         -0.83780       -2.32630        1.63430
H          1.31230       -1.00090        1.53810
H          0.40860        0.40940        2.13850
