13
gdb 17033	4.49353	1.60545	1.35795	2.6902	58.39	-0.2821	0.0057	0.2878	863.9053	0.095619	-398.532688	-398.526238	-398.525294	-398.563349	24.623
O          0.09770        1.48450       -0.05040
C          0.09200        0.10530       -0.06080
C          0.01800       -0.64150        1.30780
O         -1.37140       -0.13490        1.44740
C         -1.28230       -0.62660        0.04850
C         -0.56880       -1.89550        0.59780
C          0.25960       -2.71650       -0.26720
N          0.91780       -3.37280       -0.95460
H         -0.54930        1.74760        0.62070
H          0.80670       -0.25250       -0.80300
H          0.66340       -0.60010        2.18420
H         -2.17830       -0.56760       -0.56790
H         -1.20730       -2.49100        1.25010
