15
gdb 14323	4.39116	1.88394	1.59817	2.9504	61.79	-0.2627	0.023	0.2857	808.1072	0.120742	-399.799192	-399.792834	-399.791889	-399.830073	24.144
N          0.00280        1.28540       -0.02390
C         -0.00580        0.02590       -0.01760
C         -1.23340       -0.85470       -0.15830
C         -0.66820       -2.24450       -0.38880
O         -0.34960       -2.51950       -1.77320
C          1.06380       -2.61660       -1.48170
C          0.83400       -2.13630       -0.04070
O          1.11450       -0.75520        0.15660
H          0.95160        1.64180        0.10200
H         -1.82210       -0.80740        0.76390
H         -1.86630       -0.52160       -0.98220
H         -1.24590       -3.05600        0.06280
H          1.42760       -3.64830       -1.56490
H          1.67120       -1.95400       -2.10640
H          1.26730       -2.70950        0.77910
