12
gdb 9002	5.60771	1.06853	0.97169	1.1344	52.96	-0.274	-0.1001	0.1739	1115.7375	0.080014	-455.640355	-455.632116	-455.631172	-455.674752	26.506
O          0.77740        0.03620        0.14780
C          0.90070        1.04390       -0.49020
C          0.70370        2.42790        0.11990
O          1.04840        3.47500       -0.79610
C          2.35810        3.62550       -1.01900
O          3.23540        2.95440       -0.53660
C          2.66270        4.77860       -1.98230
O          1.82880        5.45860       -2.50790
H          1.13660        1.04470       -1.57720
H         -0.35510        2.57600        0.34600
H          1.28940        2.50270        1.03960
H          3.75320        4.89960       -2.13390
