15
gdb 19547	4.22877	1.7671	1.7245	2.9062	66.78	-0.249	-0.0311	0.2179	807.6362	0.119783	-362.60342	-362.597067	-362.596123	-362.634091	24.241
O         -0.25710        0.07100       -0.21410
C         -0.02830        1.23800        0.00140
C          1.30500        1.83310        0.03590
C          1.92130        2.83240        0.97840
C          3.22440        2.03150        1.02520
C          2.77820        1.43480       -0.33690
C          2.74350        2.68260       -1.23360
N          1.61170        3.24350       -0.41100
H         -0.83770        1.97540        0.20200
H          1.43410        3.39380        1.76520
H          4.17290        2.57810        1.05340
H          3.19250        1.29300        1.82890
H          3.12980        0.46530       -0.67800
H          3.63620        3.31680       -1.27300
H          2.36860        2.49300       -2.24120
