12
gdb 5348	6.0286	1.54364	1.22896	2.0541	69.26	-0.2788	-0.0756	0.2032	889.37	0.08726	-340.456824	-340.450851	-340.449907	-340.487041	22.146
N          0.01750       -1.16490       -0.00360
C          0.00230       -0.00800        0.00330
C         -0.01720        1.42340        0.01090
C         -1.22900        2.12100        0.03070
C         -1.18660        3.51090        0.03730
N         -0.05520        4.22070        0.02580
C          1.09510        3.54210        0.00690
C          1.17520        2.15380       -0.00130
H         -2.17340        1.59100        0.04070
H         -2.11160        4.08150        0.05270
H          2.00420        4.13770       -0.00220
H          2.13370        1.64990       -0.01680
