18
gdb 12529	2.86789	2.10194	1.4919	1.9357	74.19	-0.2376	0.0136	0.2512	899.1973	0.155363	-347.806212	-347.798579	-347.797635	-347.83853	29.143
O          0.11950        1.49610       -0.14400
C          0.04570        0.07730        0.01740
C         -1.40440       -0.38690        0.22880
C         -2.32880       -0.02890       -0.90920
C         -2.17830       -0.39040       -2.18280
C         -1.08310       -1.23930       -2.77630
C          0.31510       -1.16740       -2.21890
C          0.78720       -0.63290       -1.09180
H         -0.31010        1.69430       -0.98460
H          0.59000       -0.10930        0.95070
H         -1.40510       -1.47210        0.39720
H         -1.76850        0.07630        1.15060
H         -3.19950        0.57030       -0.65350
H         -2.94320       -0.08300       -2.89330
H         -1.40910       -2.29470       -2.76850
H         -1.00990       -1.00330       -3.84680
H          1.04780       -1.62800       -2.88140
H          1.86460       -0.67240       -0.94340
