16
gdb 20580	3.28754	1.99795	1.26428	3.3774	68.07	-0.2243	0.0134	0.2376	945.0132	0.130169	-379.935462	-379.927087	-379.926142	-379.968328	30.016
C          0.08410        1.49830       -0.02700
C         -0.06070        0.01770       -0.05470
C         -1.13270       -0.81740        0.03270
C         -2.58530       -0.51140        0.20540
C         -0.53230       -2.11560       -0.05920
N         -1.19480       -3.32890        0.05820
N          0.77220       -2.05870       -0.19870
O          1.07670       -0.68980       -0.18510
H          0.76750        1.80740        0.77060
H          0.49200        1.87190       -0.97230
H         -0.88310        1.97590        0.14200
H         -3.17740       -0.81640       -0.66730
H         -3.00110       -1.03310        1.07520
H         -2.75350        0.55910        0.34940
H         -2.08760       -3.35590       -0.41490
H         -0.61430       -4.11360       -0.20890
