15
gdb 4470	3.55778	1.84475	1.23367	2.6026	65.04	-0.1953	0.0367	0.232	949.2501	0.119853	-396.022259	-396.014302	-396.013357	-396.054099	29.562
C         -0.05850        1.52290        0.12910
C         -0.02900        0.03740        0.02700
C         -0.02870       -0.72480       -1.08980
N         -0.04900       -0.43020       -2.44620
O          0.00390       -2.07350       -0.66560
C          0.02170       -1.98430        0.67560
N         -0.01750       -3.16650        1.37630
N          0.01010       -0.78120        1.16120
H          0.82270        1.89600        0.66280
H         -0.08330        1.97090       -0.86660
H         -0.93800        1.85830        0.68970
H          0.78350       -0.73990       -2.93760
H         -0.86090       -0.80700       -2.92500
H          0.43840       -3.94260        0.91900
H          0.25730       -3.05230        2.34100
