18
gdb 16889	3.90514	1.80786	1.4148	1.8941	73.52	-0.2294	0.0078	0.2372	921.6576	0.155068	-347.810343	-347.803171	-347.802227	-347.84141	28.135
C          0.05850        1.52630        0.00840
C         -0.02950        0.02760       -0.01900
C         -0.02680       -0.67780       -1.15620
C         -0.08350       -2.15860       -1.15650
O          0.87370       -2.86520       -0.32320
C         -0.49440       -2.85370        0.07480
C         -0.85710       -2.01160        1.27610
C         -0.07300       -0.68500        1.31600
H          0.94100        1.85860        0.57100
H          0.11920        1.94900       -0.99800
H         -0.81220        1.96330        0.51450
H          0.02170       -0.17590       -2.11860
H         -0.25270       -2.64390       -2.11560
H         -1.00140       -3.81620       -0.00980
H         -1.93560       -1.81050        1.22550
H         -0.68500       -2.57210        2.20170
H          0.95630       -0.89110        1.63480
H         -0.50410       -0.02790        2.07980
