17
gdb 10406	2.55674	2.00388	1.42916	4.1356	68.29	-0.275	0.0084	0.2834	941.1157	0.141455	-363.862382	-363.854024	-363.85308	-363.895528	29.789
C         -0.21390        1.51140       -0.09070
C          0.06410        0.00750       -0.03340
C          0.84100       -0.50630       -1.24600
C          0.87640       -2.04570       -1.47080
C          0.18850       -1.72380       -2.81060
O          0.11030       -0.31560       -2.48160
C          2.17290        0.12390       -1.32850
N          3.22330        0.60300       -1.38380
H          0.71560        2.08830       -0.07320
H         -0.75550        1.76450       -1.00620
H         -0.82070        1.82160        0.76420
H          0.62720       -0.25190        0.87170
H         -0.87790       -0.55120       -0.00150
H          1.86660       -2.49570       -1.52960
H          0.26410       -2.59330       -0.75310
H          0.80300       -1.89490       -3.70120
H         -0.80460       -2.15600       -2.96790
