16
gdb 9095	4.36714	0.97924	0.84602	2.8073	63.22	-0.2679	-0.039	0.2289	1295.7672	0.127318	-420.90871	-420.899631	-420.898687	-420.943953	30.166
C         -0.04700        1.69070       -0.03590
C         -0.07790        0.15660        0.08380
C         -1.46420       -0.43590       -0.16230
O         -2.38950        0.08420        0.79970
C         -3.00180       -0.78060        1.63160
O         -3.77250       -0.43080        2.47260
C          0.94160       -0.46680       -0.84890
O          0.69560       -1.32630       -1.65700
H          0.95560        2.08090        0.16340
H         -0.34370        2.01030       -1.04040
H         -0.73910        2.13500        0.68200
H          0.24140       -0.10710        1.10460
H         -1.83080       -0.15850       -1.15490
H         -1.43100       -1.52960       -0.11350
H         -2.71160       -1.83310        1.44320
H          1.97230       -0.05900       -0.73840
