14
gdb 12978	2.85625	2.7565	1.63811	3.2044	62.38	-0.2431	-0.0715	0.1716	776.8125	0.106626	-382.54594	-382.539057	-382.538112	-382.576818	25.857
C         -0.07800        1.53120        0.02930
C          0.13400        0.04840        0.02290
O         -0.73190       -0.77150        0.83950
C          0.69120       -0.79300        1.08680
C          1.36600       -1.96670        0.43360
C          1.21050       -1.92190       -0.89610
C          0.47940       -0.67980       -1.28590
O          0.22680       -0.28670       -2.39830
H          0.83150        2.05300       -0.28420
H         -0.87170        1.79720       -0.67510
H         -0.35950        1.87310        1.02780
H          1.00750       -0.41040        2.05190
H          1.86280       -2.75000        0.99360
H          1.53470       -2.65610       -1.62200
