20
gdb 6798	3.615	1.21131	0.97536	2.8149	68.97	-0.2393	0.0634	0.3027	1234.8453	0.175131	-423.26265	-423.252951	-423.252007	-423.298348	34.524
C          0.20270        1.10430        0.31760
C         -0.20040       -0.27750       -0.19070
O          0.51760       -1.31010        0.49440
C         -1.71160       -0.50540       -0.10820
O         -2.04960       -1.69600       -0.78210
C         -2.89490       -2.62800       -0.12060
C         -2.11320       -3.90690        0.16030
O         -1.02710       -3.68180        1.02990
H          1.28820        1.22090        0.27230
H         -0.25700        1.89610       -0.28180
H         -0.11410        1.24780        1.35860
H          0.09740       -0.39120       -1.23860
H          0.39630       -1.17690        1.44250
H         -2.01450       -0.54520        0.94940
H         -2.23320        0.34960       -0.56740
H         -3.26920       -2.20910        0.82300
H         -3.75860       -2.84090       -0.76640
H         -2.77460       -4.63730        0.64230
H         -1.78560       -4.33930       -0.79910
H         -0.44490       -3.03270        0.60290
