14
gdb 14660	16.72035	0.54271	0.52909	4.8589	91.64	-0.2566	-0.0796	0.177	1999.5772	0.104726	-345.369532	-345.360448	-345.359503	-345.405215	29.617
C         -0.04500        1.56940        0.05470
C          0.01030        0.03100       -0.01190
C          0.68510       -0.47220       -1.19680
C          1.24980       -0.87990       -2.18890
C          1.88020       -1.33780       -3.29640
C          2.44520       -1.75190       -4.28960
C          3.11950       -2.20320       -5.47500
O          3.29150       -3.36600       -5.76670
H          0.96170        1.99460        0.06310
H         -0.57960        1.97690       -0.80690
H         -0.56230        1.88540        0.96470
H          0.51860       -0.36340        0.87780
H         -1.00700       -0.38100        0.01660
H          3.48380       -1.38290       -6.12630
