18
gdb 6913	5.04512	1.07956	0.9967	2.1141	74.6	-0.2563	0.052	0.3083	1218.3238	0.149928	-347.761524	-347.752225	-347.751281	-347.795602	33.718
C          0.07190        1.49780       -0.15480
C         -0.06640        0.01490        0.11750
C         -1.20640       -0.65870       -0.61880
O          1.16390       -0.73590        0.11690
C          0.44910       -0.61720        1.34680
C          1.12970        0.12430        2.48840
C          2.02780       -0.73900        3.24880
C          2.75330       -1.46940        3.86820
H          0.93680        1.93140        0.34880
H          0.19250        1.66780       -1.23020
H         -0.82660        2.03570        0.16680
H         -1.09150       -0.52770       -1.70040
H         -1.22820       -1.73000       -0.40560
H         -2.16950       -0.22400       -0.32970
H         -0.03450       -1.54210        1.66800
H          1.68680        0.98030        2.09620
H          0.35660        0.52660        3.15740
H          3.40390       -2.10720        4.41320
