15
gdb 18308	3.46466	2.3972	1.56856	7.2874	69.9	-0.1704	-0.0261	0.1443	792.7687	0.120914	-362.598243	-362.591943	-362.590999	-362.628602	24.648
O         -0.17170        0.10010        0.45740
C         -0.06610        1.27930        0.13150
C         -1.25410        2.19060       -0.14430
C         -0.88840        3.47140       -0.15490
N          0.56400        3.53750       -0.02710
H          0.96240        4.11070       -0.77240
C          1.29890        3.75760        1.30490
C          2.04690        2.42060        1.15100
C          1.09260        2.10280       -0.00440
H         -2.26910        1.82470       -0.23040
H         -1.43960        4.38610       -0.32380
H          1.86130        4.69570        1.30220
H          0.55170        3.76400        2.09780
H          3.10470        2.53350        0.88730
H          1.97070        1.75190        2.01250
