14
gdb 20618	3.44514	2.00678	1.27824	1.0974	60.35	-0.1978	0.0317	0.2295	894.7561	0.106841	-415.879538	-415.871165	-415.870221	-415.912481	29.406
C         -0.06180        1.51780        0.13310
C          0.01520        0.03820       -0.03140
C          0.05490       -0.73830       -1.17180
O          0.03080       -0.28870       -2.46030
C          0.12500       -2.06890       -0.70720
O          0.18010       -3.15070       -1.52220
N          0.13020       -2.14410        0.61170
N          0.06270       -0.84710        1.00610
H          0.80840        1.91830        0.66640
H         -0.09660        1.98860       -0.85170
H         -0.95890        1.82400        0.68400
H          0.06350       -1.05810       -3.03840
H          0.22180       -3.93420       -0.96090
H          0.05340       -0.63940        1.98820
