18
gdb 17043	4.66763	1.33094	1.24364	3.2022	72.52	-0.2382	0.0131	0.2513	1038.1784	0.154089	-347.772128	-347.764585	-347.763641	-347.804196	28.668
C         -0.02710        1.55310        0.04740
C          0.02310        0.02800        0.20080
C         -1.35820       -0.60720        0.07240
C         -2.05810       -0.76080       -1.33690
C         -1.10210       -1.97520       -1.60040
C         -1.52070       -2.16670       -0.10090
C         -2.92360       -1.80390       -0.61290
O         -4.06030       -2.14590       -0.50880
H          0.96120        1.99670        0.20110
H         -0.37120        1.84020       -0.95160
H         -0.71110        2.00280        0.77530
H          0.73310       -0.38680       -0.52040
H          0.41800       -0.22480        1.19320
H         -2.01550       -0.18110        0.83860
H         -2.35420        0.02300       -2.03080
H         -1.44320       -2.73000       -2.31140
H         -0.05650       -1.72420       -1.76890
H         -1.21260       -2.95130        0.58730
