15
gdb 11391	4.17685	1.54756	1.20337	2.1934	65.78	-0.2503	-0.0375	0.2128	964.856	0.119905	-399.817243	-399.810074	-399.80913	-399.848915	26.757
O          0.05330        1.40060       -0.09350
C          0.05680       -0.00180        0.04840
C         -1.36840       -0.56390        0.07320
O         -2.00930       -0.21490       -1.16970
C         -2.42360       -1.35760       -1.82110
N         -3.00970       -1.38820       -2.94180
C         -2.06390       -2.50480       -0.97690
C         -1.46370       -2.06080        0.12730
H         -0.43770        1.59520       -0.90030
H          0.61720       -0.49960       -0.75810
H          0.55550       -0.22610        0.99740
H         -1.92340       -0.07430        0.88530
H         -3.13760       -0.44470       -3.31020
H         -2.28530       -3.52180       -1.26440
H         -1.08090       -2.64610        0.95280
