13
gdb 21293	3.62657	1.9366	1.27259	1.1354	56.36	-0.2134	0.0071	0.2205	888.6422	0.09613	-431.906054	-431.898377	-431.897433	-431.93832	26.522
C         -0.01600        1.45250       -0.04810
O          0.02560        0.02980        0.02600
C          0.60500       -0.58350       -1.01360
N          1.12620        0.02100       -2.07400
N          1.57220       -0.99500       -2.81530
N          1.37920       -2.21820       -2.31410
C          0.76470       -1.98170       -1.16660
O          0.36750       -2.93590       -0.30500
H          0.99460        1.87150       -0.10210
H         -0.57890        1.78250       -0.92780
H         -0.51320        1.78520        0.86350
H          2.02670       -0.84850       -3.69840
H          0.61460       -3.78880       -0.68320
