17
gdb 15661	3.30991	1.84361	1.287	4.0011	71.05	-0.2356	-0.0255	0.2101	962.1971	0.143135	-363.914973	-363.907213	-363.906269	-363.947697	28.232
C          0.00090        1.55140        0.19050
C         -0.10130        0.05090       -0.10110
N         -1.45330       -0.46310       -0.03950
C         -2.20340       -0.65490        1.17970
C         -3.49440       -1.25510        0.68910
C         -3.46190       -1.38400       -0.63720
C         -2.15160       -0.88930       -1.15450
O         -1.75040       -0.85710       -2.30170
H          1.04230        1.88010        0.11720
H         -0.59170        2.12470       -0.52810
H         -0.35350        1.79380        1.19790
H          0.24860       -0.16100       -1.11520
H          0.53420       -0.51200        0.59650
H         -1.68180       -1.32670        1.87960
H         -2.37750        0.28940        1.71720
H         -4.29970       -1.52120        1.36090
H         -4.22300       -1.77760       -1.29530
