11
gdb 21676	7.44166	1.38185	1.16648	1.8092	63.22	-0.2431	-0.0548	0.1884	933.8303	0.072523	-393.548849	-393.542122	-393.541177	-393.579608	24.916
N          0.00110        1.35750        0.14670
C         -0.01870       -0.00590        0.04320
N         -1.12700       -0.71570       -0.01560
O         -0.65330       -2.03730       -0.03800
C          0.68510       -1.96080       -0.00350
N          1.14330       -0.74140        0.04610
C          1.42180       -3.16520       -0.02300
C          2.03860       -4.19640       -0.04030
H          0.85100        1.78760       -0.18360
H         -0.84510        1.82470       -0.14130
H          2.58840       -5.10580       -0.05460
