16
gdb 8848	4.74554	1.26568	1.01204	4.9934	64.71	-0.2551	-0.0033	0.2518	1120.3071	0.129712	-417.121678	-417.112508	-417.111564	-417.156343	30.886
C          0.01330        1.47620        0.10510
N         -0.04540        0.02640        0.09200
C         -1.23030       -0.63690       -0.02820
O         -2.30770       -0.08060       -0.13160
N         -1.11510       -2.04800       -0.02400
C          0.15530       -2.75110        0.09800
C         -2.27720       -2.80350       -0.14240
O         -2.29140       -4.01260       -0.14980
H          0.61440        1.85560       -0.72840
H         -1.00690        1.84620        0.00620
H          0.43950        1.84680        1.04370
H          0.81300       -0.48810        0.17380
H          0.65060       -2.51980        1.04740
H         -0.07230       -3.81680        0.07020
H          0.82660       -2.51090       -0.73370
H         -3.16510       -2.16550       -0.22680
