19
gdb 7273	3.99428	1.1285	0.93342	5.0529	72.31	-0.2844	0.0314	0.3157	1248.1858	0.163406	-365.084509	-365.074859	-365.073915	-365.118955	34.542
C         -0.00980        1.54370       -0.03830
C          0.01250        0.00980        0.02460
C          0.83640       -0.46820        1.22980
C         -1.42860       -0.54210        0.02920
O         -2.18550       -0.06020       -1.06800
C         -1.47150       -2.08910        0.07370
C         -2.83430       -2.61300        0.02660
N         -3.90720       -3.04060        0.00280
H          1.00370        1.94040       -0.15120
H         -0.61980        1.89710       -0.87160
H         -0.43040        1.96150        0.88400
H          0.49560       -0.36600       -0.89210
H          1.81560        0.01980        1.23610
H          0.33690       -0.21200        2.17170
H          1.01290       -1.54760        1.22320
H         -1.95150       -0.16020        0.91450
H         -1.75560       -0.34410       -1.88320
H         -0.90710       -2.49840       -0.77480
H         -0.99060       -2.46320        0.98240
