10
gdb 781	9.42952	3.56336	2.58609	0.8594	43.61	-0.2132	0.0237	0.2369	460.0724	0.075398	-301.357437	-301.352423	-301.351479	-301.385553	18.266
O          0.11120        1.39930       -0.11090
C          0.06980        0.03980       -0.04560
C         -0.01030       -0.80340       -1.13530
N         -0.02630       -2.06250       -0.61730
N          0.03710       -2.09540        0.71890
C          0.09640       -0.81280        1.08010
H          0.16450        1.74830        0.78350
H         -0.05480       -0.60410       -2.19260
H         -0.07910       -2.92920       -1.12370
H          0.15560       -0.54560        2.12570
