20
gdb 13165	3.47239	1.40646	1.0592	0.6502	80.85	-0.2556	0.0568	0.3124	1148.5006	0.175981	-311.831084	-311.822275	-311.821331	-311.86441	33.047
C         -0.10670        1.51570        0.01210
C          0.03480       -0.01750       -0.06520
C          0.75970       -0.42100       -1.26990
C          1.37870       -0.74660       -2.24830
C          0.71020       -0.58760        1.19100
C         -0.03840       -0.48770        2.55110
C          0.48660       -1.90780        2.89570
C          0.77260       -2.12720        1.38530
H          0.87760        1.99070        0.06710
H         -0.62200        1.90660       -0.86910
H         -0.67730        1.79990        0.90140
H         -0.97560       -0.44970       -0.11910
H          1.91480       -1.03870       -3.11700
H          1.71430       -0.15740        1.27930
H          0.22270        0.33420        3.22210
H         -1.12450       -0.48560        2.40600
H          1.40920       -1.86630        3.48160
H         -0.20370       -2.59680        3.38740
H         -0.06470       -2.62340        0.88320
H          1.69540       -2.63780        1.10300
