17
gdb 17452	4.81962	1.54771	1.40302	2.5409	68.23	-0.2182	0.0697	0.2879	932.7683	0.141144	-363.768531	-363.76112	-363.760175	-363.799565	29.311
C         -0.05800        1.44150       -0.08300
C         -0.01590       -0.06830       -0.08420
C          0.78280       -0.77190       -1.11320
N          1.30210       -0.62730        0.29470
C          1.25260       -2.13970        0.41290
C         -0.06060       -2.83830        0.10840
C          0.80260       -2.31600       -1.00650
O          1.35570       -3.10640       -1.99390
H          0.87800        1.85530       -0.46740
H         -0.88270        1.80520       -0.70510
H         -0.20210        1.82050        0.93370
H         -0.91250       -0.53670        0.30840
H          1.28070       -0.26080       -1.93260
H          2.03910       -2.61380        0.98530
H          0.03640       -3.91400        0.22740
H         -1.04430       -2.45890        0.36300
H          0.64940       -3.39100       -2.58500
