21
gdb 10765	3.47308	1.41403	1.29265	2.8369	74.16	-0.2342	0.0593	0.2935	1073.2247	0.187117	-366.242115	-366.232523	-366.231579	-366.275966	35.607
C          0.13410        1.44810       -0.27610
C         -0.05010       -0.04500        0.01270
C         -1.51850       -0.52390        0.11160
C         -2.24780        0.07330        1.32270
O         -2.22340       -0.20590       -1.09490
C         -1.52860       -2.04680        0.20940
C         -2.69890       -2.84110       -0.22790
N         -1.44000       -2.87020       -1.00260
H          1.19690        1.69310       -0.35940
H         -0.33390        1.73020       -1.22560
H         -0.28440        2.08160        0.51270
H          0.43280       -0.62650       -0.78060
H          0.46230       -0.30650        0.94670
H         -2.25400        1.16830        1.28960
H         -3.28360       -0.27500        1.34280
H         -1.76460       -0.22590        2.25850
H         -2.34980        0.74650       -1.12720
H         -0.92930       -2.42120        1.03770
H         -2.94800       -3.76820        0.28090
H         -3.53990       -2.30080       -0.65060
H         -1.55700       -2.25300       -1.80440
