16
gdb 6681	6.82017	0.82467	0.77706	4.5672	62.92	-0.2439	-0.0205	0.2234	1397.0702	0.12936	-417.106056	-417.096856	-417.095912	-417.141257	31.368
N         -0.03370        1.23510       -0.19870
C         -0.28830       -0.12630       -0.30110
O          0.12500       -0.81090       -1.22040
N         -1.02540       -0.64620        0.73930
C         -1.19250       -2.08850        0.84400
C         -2.29020       -2.61650       -0.09950
C         -2.36050       -4.12430       -0.09150
O         -3.34560       -4.76910        0.16340
H          0.30630        1.62840       -1.06330
H         -0.72030        1.80810        0.26870
H         -1.09520       -0.10930        1.58780
H         -0.24360       -2.58420        0.60860
H         -1.44710       -2.31890        1.88230
H         -3.27010       -2.20780        0.15960
H         -2.02210       -2.29790       -1.11480
H         -1.39940       -4.62920       -0.34840
