15
gdb 13959	6.01566	1.25739	1.15865	2.73	63.5	-0.2455	0.0127	0.2582	1015.4488	0.118001	-399.736396	-399.729102	-399.728157	-399.768535	26.544
N         -0.08630        1.29860       -0.02170
C         -0.12010        0.05600       -0.22180
O         -1.07120       -0.69390        0.39470
C         -1.00770       -2.06370        0.19670
C         -1.15790       -2.74600       -1.14590
C         -2.11180       -3.05840       -0.02200
O         -1.53520       -3.99930        0.88530
C         -0.48950       -3.05090        1.23900
H          0.67050        1.71730       -0.55860
H          0.54220       -0.53470       -0.86600
H         -1.57520       -2.10560       -1.91740
H         -0.44740       -3.49460       -1.48600
H         -3.19010       -2.97380       -0.07030
H          0.51680       -3.46480        1.10970
H         -0.62540       -2.68750        2.26320
