20
gdb 16567	2.82479	2.50457	2.05602	1.3805	72.71	-0.2374	0.076	0.3134	794.3513	0.181744	-349.028503	-349.022164	-349.02122	-349.058508	26.802
C         -0.04520        1.56100       -0.07220
C          1.44700        2.01380       -0.06310
C          2.25970        0.70020        0.02350
C          1.33980       -0.30940       -0.67800
C          0.01020        0.01320        0.03070
C          0.14350       -0.45950        1.49170
C          1.32990        0.23600        2.17680
O          2.49790        0.27920        1.36800
H         -0.62430        2.00720        0.74220
H         -0.53220        1.85580       -1.00670
H          1.70360        2.53900       -0.98770
H          1.69340        2.68390        0.76440
H          3.25300        0.78580       -0.42320
H          1.28340       -0.09820       -1.75240
H          1.67600       -1.34070       -0.54070
H         -0.85700       -0.45940       -0.43880
H         -0.76930       -0.24750        2.06150
H          0.28950       -1.54610        1.50390
H          1.03620        1.25630        2.47030
H          1.61960       -0.28820        3.09240
