17
gdb 10742	2.52794	1.93006	1.5756	2.4886	68.01	-0.2579	0.0202	0.2781	907.9181	0.142315	-360.022822	-360.014268	-360.013324	-360.055466	31.573
C         -0.09050        1.49490       -0.13110
C          0.01450       -0.03240        0.03810
N          0.76930       -0.32020        1.26140
C         -1.35800       -0.60130        0.08270
N         -2.41790       -1.06090        0.14710
C          0.78720       -0.63730       -1.13660
C          0.59910       -2.04330       -1.57010
N          0.15590       -0.92460       -2.42480
H          0.91780        1.91500       -0.15050
H         -0.60470        1.74810       -1.06090
H         -0.64130        1.94230        0.70130
H          0.30330        0.08250        2.06940
H          0.82190       -1.32320        1.41290
H          1.77860       -0.19700       -1.21320
H          1.44530       -2.60680       -1.95130
H         -0.16270       -2.63730       -1.07220
H         -0.85630       -0.83110       -2.35460
