15
gdb 5288	4.83351	1.54384	1.17867	5.1452	69.62	-0.2246	-0.0209	0.2037	971.3418	0.119905	-362.726609	-362.719213	-362.718269	-362.758588	27.15
C         -0.01990        1.49580        0.00530
C         -0.02000       -0.02730        0.02720
O         -0.03620       -0.63890        1.07920
C         -0.00110       -0.72820       -1.26490
C          0.01740       -0.17480       -2.53560
N          0.03110       -1.19700       -3.43500
C          0.02120       -2.40830       -2.77320
C          0.00100       -2.14950       -1.43030
H          0.87040        1.87600       -0.50730
H         -0.89470        1.87580       -0.53370
H         -0.03530        1.86720        1.03030
H          0.02210        0.85310       -2.86080
H          0.04590       -1.08530       -4.43420
H          0.02950       -3.33600       -3.32200
H         -0.01100       -2.86700       -0.62620
