19
gdb 13075	4.18257	1.22075	1.03355	4.1998	75.47	-0.2999	0.0382	0.3381	1156.4584	0.165978	-327.939457	-327.931107	-327.930162	-327.972552	30.807
C         -0.08570        1.57710       -0.08230
C          0.00220        0.05320       -0.04080
C          1.17830       -0.52930       -0.88260
C          2.00620       -0.69240        0.42070
C          0.68580       -0.56640        1.22480
C          0.68110        0.21520        2.54490
C          1.46620       -0.45430        3.58090
N          2.09240       -1.00020        4.38450
H          0.88630        2.05050        0.09680
H         -0.42950        1.90760       -1.06800
H         -0.79120        1.96700        0.65980
H         -0.98280       -0.36810       -0.26350
H          0.92720       -1.49200       -1.33530
H          1.59060        0.12140       -1.65810
H          2.58410       -1.60930        0.54950
H          2.67230        0.15860        0.59350
H          0.26970       -1.56140        1.41000
H          1.08940        1.22160        2.40170
H         -0.34400        0.33990        2.91460
