12
gdb 12170	3.80004	1.5677	1.22446	2.7466	57.22	-0.2947	-0.0187	0.276	922.5128	0.082913	-414.650609	-414.64302	-414.642076	-414.683238	26.022
O          0.04670        1.25740        0.24990
C          0.11230       -0.11470       -0.00230
C         -1.28070       -0.77020       -0.21990
O         -0.87180       -1.19680       -1.55930
C          0.34110       -0.53890       -1.44450
N          1.25720       -0.32880       -2.26610
C         -1.65000       -1.89210        0.63190
N         -1.93840       -2.76960        1.32530
H          0.83420        1.66340       -0.13160
H          0.73730       -0.65470        0.71980
H         -2.08530       -0.03330       -0.27420
H          1.06270       -0.72210       -3.18780
