17
gdb 83	7.26511	3.32874	2.54491	0.0618	56.26	-0.3085	0.085	0.3934	565.8412	0.159632	-197.629387	-197.622325	-197.621381	-197.659365	25.169
C          0.05880        1.56170       -0.01950
C         -0.01540        0.03180        0.00310
C         -1.44100       -0.54860        0.05030
C         -1.40780       -2.07230       -0.13010
C         -2.18400       -0.17660        1.34110
H          1.09440        1.90230       -0.11900
H         -0.50690        1.97220       -0.86390
H         -0.34410        2.00630        0.89580
H          0.48930       -0.36010       -0.88950
H          0.55250       -0.35140        0.86270
H         -2.00030       -0.12150       -0.79560
H         -0.85500       -2.55070        0.68780
H         -2.41790       -2.49540       -0.13720
H         -0.91930       -2.35360       -1.06910
H         -3.19100       -0.60700        1.35140
H         -1.65200       -0.56010        2.22060
H         -2.28790        0.90580        1.46080
