13
gdb 7024	7.51766	1.00035	0.88768	5.4797	62.63	-0.2564	-0.0351	0.2213	1199.9709	0.092634	-398.607514	-398.598996	-398.598052	-398.641892	28.748
O         -0.50780        0.16780        0.00810
C         -0.14320        1.30860        0.00930
N          1.17630        1.76130       -0.00090
C          2.35090        0.98950       -0.01470
O          2.36800       -0.20780       -0.02050
C          3.60730        1.88440       -0.02140
C          4.85280        1.14000       -0.03820
C          5.89190        0.54010       -0.05220
H         -0.83740        2.17430        0.01900
H          1.28690        2.76540        0.00230
H          3.54770        2.55090       -0.89330
H          3.56460        2.53950        0.86010
H          6.80420       -0.00350       -0.06470
