17
gdb 15061	3.14534	1.52784	1.15671	1.7245	69.33	-0.2472	0.0325	0.2797	1042.7296	0.141299	-363.790928	-363.782351	-363.781407	-363.824125	31.341
O          0.19760        1.32080       -0.11910
C          0.04200       -0.07710       -0.03250
C         -1.44440       -0.50850        0.07270
C         -2.17320       -0.02560       -1.09820
C         -2.71590        0.38230       -2.09240
C         -1.55380       -2.02070        0.26240
C         -2.77680       -2.77680       -0.09080
N         -1.54040       -2.94480       -0.87930
H         -0.27240        1.61330       -0.90890
H          0.50580       -0.59940       -0.88270
H          0.56280       -0.39070        0.87750
H         -1.85580       -0.01690        0.96530
H         -3.22270        0.74520       -2.95290
H         -0.96310       -2.37300        1.10650
H         -3.06730       -3.64150        0.49870
H         -3.59950       -2.22610       -0.53790
H         -1.63060       -2.41040       -1.74220
