18
gdb 6316	3.40052	1.18322	0.99104	1.6016	69.04	-0.2519	-0.0234	0.2285	1211.2662	0.149563	-384.980682	-384.970986	-384.970042	-385.016405	33.001
C         -0.04740        1.73820       -0.24250
C          0.04500        0.22650        0.02790
C         -1.31570       -0.46290        0.10900
C         -2.04080       -0.23140        1.42810
C         -3.47280       -0.72800        1.49810
O         -1.50470        0.30860        2.37040
C          0.96050       -0.43910       -0.97890
O          0.72560       -1.46360       -1.56850
H          0.94750        2.19050       -0.31060
H         -0.57500        1.94120       -1.18100
H         -0.58420        2.22970        0.57170
H          0.54340        0.10890        1.00270
H         -1.96710       -0.15360       -0.71880
H         -1.19180       -1.54550       -0.02600
H         -3.53910       -1.77240        1.17510
H         -3.85370       -0.62530        2.51470
H         -4.10080       -0.14500        0.81420
H          1.92190        0.10230       -1.13990
