17
gdb 18891	4.43984	2.30657	1.98099	1.7055	69.53	-0.2226	0.0745	0.2972	737.733	0.144114	-326.671383	-326.665328	-326.664384	-326.701036	25.271
C         -0.01340        1.46320        0.05970
C         -0.03140       -0.04270        0.01190
C         -1.25530       -0.82550       -0.43740
N         -0.81030       -2.21800       -0.32030
C          0.63550       -2.27970       -0.60510
C          0.14490       -2.31860        0.79900
C          0.68990       -0.88370        1.04580
C          1.19110       -0.84410       -0.38770
H          0.95310        1.84030        0.40740
H         -0.20000        1.89240       -0.93110
H         -0.78290        1.84630        0.73940
H         -2.12540       -0.65880        0.20740
H         -1.53770       -0.61240       -1.47430
H          1.02400       -3.04860       -1.26050
H          0.05440       -3.12540        1.51480
H          1.14510       -0.50010        1.94790
H          2.10230       -0.42460       -0.79000
