4
gdb 2	293.60975	293.54111	191.39397	1.6256	9.46	-0.257	0.0829	0.3399	26.1563	0.034358	-56.525887	-56.523026	-56.522082	-56.544961	6.316
N         -0.04040        1.02410        0.06260
H          0.01730        0.01250       -0.02740
H          0.91580        1.35870       -0.02880
H         -0.52030        1.34350       -0.77550
