20
gdb 19183	3.17223	2.01666	1.64525	0.2884	79.32	-0.2211	0.0178	0.2389	902.4909	0.17804	-311.839964	-311.832532	-311.831588	-311.870946	30.218
C         -0.24490        1.53680        1.14830
C         -0.09590        0.08680        0.71920
C          0.93580       -0.35200       -0.38650
C          2.25730        0.09080        0.25170
C          2.13080       -0.29900        1.52480
C          0.74250       -0.94780        1.55960
C          0.83070       -1.80450        0.23220
C         -0.33190       -2.70870       -0.16010
H          0.71900        1.99400        1.38410
H         -0.71750        2.12690        0.35470
H         -0.88460        1.61240        2.03510
H         -1.08770       -0.31700        0.49700
H          0.77160       -0.15670       -1.44740
H          3.07780        0.58800       -0.24590
H          2.81970       -0.20760        2.35250
H          0.37940       -1.36520        2.50000
H          1.76510       -2.36760        0.15260
H         -1.30960       -2.22330       -0.10840
H         -0.19790       -3.07260       -1.18520
H         -0.36450       -3.58720        0.49450
