16
gdb 10282	2.5531	1.7643	1.0952	0.5797	65.73	-0.2667	0.0102	0.2769	1056.9535	0.129717	-379.979288	-379.970294	-379.96935	-380.013519	31.566
C          0.01670        1.51590        0.17370
C          0.11090       -0.00390        0.04320
C          0.63170       -0.46880       -1.33900
C          2.00250       -0.02680       -1.58710
N          3.10070        0.28070       -1.78200
C          0.44230       -2.00320       -1.49530
N          1.51410       -2.70280       -1.93690
O         -0.63430       -2.50050       -1.23890
H          0.99410        1.99320        0.05020
H         -0.66080        1.93730       -0.57710
H         -0.36710        1.79050        1.16020
H          0.76500       -0.41350        0.82080
H         -0.86810       -0.47270        0.16690
H         -0.00570       -0.02130       -2.11290
H          2.40560       -2.27140       -2.11480
H          1.41540       -3.69870       -2.04770
