17
gdb 3098	3.84868	2.06098	1.7492	3.1278	59.99	-0.2484	0.0595	0.3079	791.7343	0.147716	-346.829652	-346.821618	-346.820674	-346.861644	29.262
C          0.02990        1.58200       -0.16770
C          0.03520        0.07690        0.00070
C          1.33110       -0.70410        0.02420
O          2.55700       -0.01900        0.08730
C          0.50070       -0.62060        1.27400
C          1.05690        0.13160        2.46990
O          2.20640       -0.50320        3.00850
H          0.97180        2.02960        0.15700
H         -0.11460        1.84610       -1.22150
H         -0.78090        2.04880        0.40120
H         -0.78450       -0.42370       -0.50910
H          1.37920       -1.65320       -0.50790
H          2.77040        0.31930       -0.78840
H         -0.02930       -1.53140        1.53760
H          1.27090        1.17560        2.20950
H          0.31350        0.14730        3.27380
H          2.87000       -0.47940        2.30900
