20
gdb 8153	3.97466	1.62619	1.38376	1.4617	74.78	-0.2311	0.0894	0.3205	987.4731	0.177041	-349.005244	-348.997262	-348.996318	-349.037166	31.136
C          0.17330        1.55630        0.10070
C          0.08680        0.04370        0.00550
C          0.74350       -0.59280       -1.24020
C          1.25070       -1.94540       -0.72410
C          0.86790       -3.20640       -1.46080
C          2.53980       -1.89210        0.07960
C          1.20450       -1.81710        0.77440
O          0.76930       -0.53260        1.13210
H          1.21740        1.88270        0.06450
H         -0.36790        2.02290       -0.72860
H         -0.26470        1.90930        1.03850
H         -0.97080       -0.26640        0.04510
H          0.02020       -0.71760       -2.05150
H          1.55880        0.03560       -1.61710
H          1.34160       -3.25020       -2.44870
H          1.18020       -4.09840       -0.90830
H         -0.21670       -3.26830       -1.60900
H          3.11030       -2.81200        0.16860
H          3.13260       -0.98340        0.05650
H          0.86490       -2.61420        1.43030
