14
gdb 4589	5.75745	1.53198	1.21145	2.9834	68.81	-0.1947	-0.0149	0.1798	929.9678	0.109523	-378.784242	-378.777417	-378.776473	-378.814822	26.725
N         -0.01400        1.39830       -0.08290
C          0.02330        0.00690       -0.03810
N         -1.15670       -0.61950       -0.00480
C         -1.17480       -1.95210       -0.02610
C         -0.02530       -2.73710       -0.06950
O         -0.16780       -4.09700       -0.07970
C          1.20570       -2.08160       -0.09540
C          1.23660       -0.69610       -0.08370
H          0.76630        1.86940        0.35000
H         -0.90690        1.76640        0.21380
H         -2.14780       -2.43610       -0.00140
H          0.70310       -4.50480       -0.11540
H          2.13200       -2.64990       -0.12730
H          2.18140       -0.16400       -0.11560
