15
gdb 3082	3.6091	2.38157	1.9837	3.1103	61.92	-0.247	0.0144	0.2614	721.2184	0.124357	-304.683134	-304.675564	-304.674619	-304.714533	26.813
C          2.01130       -0.79840        2.62860
C          1.13810       -1.11870        1.43650
C          0.18750       -0.10760        0.83970
C          0.15950        1.22880        1.38060
N          0.13480        2.30900        1.79540
N          1.36140       -0.59240        0.09980
C          2.46990        0.31820       -0.16870
H          2.95640       -1.34780        2.56580
H          2.23440        0.26600        2.71910
H          1.50580       -1.11090        3.54750
H          0.77830       -2.14700        1.41990
H         -0.77080       -0.43380        0.44330
H          2.26510        0.84200       -1.10660
H          2.65410        1.07120        0.60790
H          3.37680       -0.27830       -0.30280
