16
gdb 6348	3.75416	1.30346	1.02877	3.0943	63.35	-0.2405	0.0118	0.2523	1123.6545	0.129968	-417.132543	-417.123317	-417.122373	-417.167535	31.434
C         -0.60020        1.36080        0.37000
N         -0.90170       -0.05530        0.41260
C         -0.78900       -0.85250       -0.67500
O         -0.38730       -0.49480       -1.76870
C         -1.15240       -2.33150       -0.42970
C         -2.35560       -2.57710        0.47180
N         -3.28240       -3.43980       -0.01720
O         -2.47750       -2.05150        1.56980
H          0.11970        1.63120        1.15010
H         -0.17000        1.58140       -0.60750
H         -1.50260        1.96830        0.50640
H         -1.33920       -0.46590        1.23000
H         -1.26180       -2.79130       -1.41280
H         -0.29100       -2.80070        0.06120
H         -3.20910       -3.84930       -0.93120
H         -4.09710       -3.63460        0.54210
