15
gdb 19507	3.66206	1.96214	1.80053	3.6278	66.19	-0.248	-0.0086	0.2394	785.9064	0.119995	-362.662046	-362.655487	-362.654543	-362.69287	24.811
O          0.30990        0.18150        0.58180
C          0.27190        1.34250        0.25750
N          1.26020        2.00850       -0.43740
C          1.92020        3.25520       -0.12280
C          1.99030        3.69410        1.34200
C          2.76580        2.57960        2.01330
C          3.16400        1.64280        1.15040
C          2.69650        1.95380       -0.23580
H         -0.61410        1.99020        0.41750
H          1.92200        4.00440       -0.90850
H          2.50260        4.66020        1.43060
H          0.99520        3.83320        1.78440
H          2.92520        2.55300        3.08510
H          3.72640        0.75040        1.39210
H          3.28850        1.68510       -1.10520
