18
gdb 17098	4.64905	1.47783	1.42077	3.0819	72.06	-0.2438	-0.0189	0.2249	933.8208	0.155836	-347.804428	-347.797661	-347.796717	-347.835729	26.46
O          0.08070       -0.08580       -0.07270
C          0.04770        1.11690        0.00140
C          1.26190        2.00720        0.03990
C          1.26340        3.12700       -1.06620
C          1.41510        4.37260       -0.17060
C          2.47760        3.90450        0.86360
C          1.34040        2.92930        1.28920
C          0.36590        4.09520        0.94190
H         -0.92920        1.65340        0.04620
H          2.13920        1.35890       -0.02780
H          2.09030        2.99550       -1.76840
H          0.33330        3.14630       -1.64450
H          1.48170        5.33750       -0.67330
H          3.41280        3.47550        0.49130
H          2.68370        4.65790        1.62740
H          1.33490        2.43760        2.26210
H          0.36290        4.86460        1.71710
H         -0.66050        3.86600        0.64390
