16
gdb 10035	2.8563	1.48072	1.11226	3.5126	67.93	-0.2636	0.0022	0.2658	1088.4273	0.128857	-379.933924	-379.92476	-379.923816	-379.968863	30.842
C         -0.06530        1.52060        0.11030
O          0.04210        0.09510        0.12490
C         -1.12020       -0.58880        0.11370
C         -0.81240       -2.08940        0.10030
C         -1.04600       -2.69440       -1.20880
N         -1.23850       -3.17090       -2.24350
N         -2.23870       -0.00880        0.11900
C         -3.48430       -0.74290        0.08040
H          0.96040        1.89100        0.11000
H         -0.59870        1.85760       -0.78240
H         -0.60480        1.87720        0.99180
H          0.23450       -2.22920        0.37890
H         -1.42930       -2.60560        0.84220
H         -3.39370       -1.83430        0.16880
H         -4.13500       -0.38670        0.88620
H         -3.99960       -0.53020       -0.86310
