12
gdb 4447	3.60802	1.95897	1.28092	5.226	53.51	-0.2102	0.038	0.2482	864.9687	0.084719	-451.838037	-451.830983	-451.830039	-451.869106	26.194
N          0.20920        1.40700        0.09930
C          0.00000        0.04780        0.01490
C         -1.09700       -0.71420       -0.00080
N         -2.43890       -0.38570       -0.01880
O         -0.65890       -2.07060        0.04240
C          0.68990       -2.06450        0.04700
O          1.41390       -3.00830        0.05150
O          1.11930       -0.75070        0.04250
H          0.94920        1.73600       -0.50970
H         -0.64830        1.92320       -0.05010
H         -2.93360       -0.64550        0.82920
H         -2.93730       -0.76970       -0.81550
