16
gdb 5762	5.88905	1.51022	1.28409	1.7436	72.3	-0.1812	0.0516	0.2328	942.5965	0.132812	-342.784262	-342.777358	-342.776414	-342.815749	26.485
C          0.95950       -0.37810       -0.80080
C         -0.25170       -1.16970       -1.14270
N         -0.27740       -0.16320       -0.06440
C         -0.33410       -0.61150        1.26570
C          0.62780       -0.84380        2.22560
C         -0.05510       -1.20960        3.42430
C         -1.40130       -1.19130        3.16030
N         -1.56140       -0.82350        1.84240
H          1.76440       -0.90710       -0.29720
H          1.27430        0.44910       -1.42980
H         -0.84370       -0.92280       -2.01860
H         -0.25940       -2.21610       -0.84840
H          1.69330       -0.74370        2.09320
H          0.39980       -1.45980        4.37040
H         -2.25410       -1.40650        3.78310
H         -2.43540       -0.67560        1.36890
