15
gdb 7338	4.7895	1.11783	0.91668	0.6168	59.59	-0.2433	-0.0645	0.1788	1212.1309	0.116251	-436.966795	-436.957737	-436.956793	-437.001235	30.724
C          0.00930        1.38090       -0.03930
O         -0.00030       -0.02860        0.00260
C          0.62900       -0.60350       -1.10010
C          0.58190       -2.11170       -0.99020
O          0.07390       -2.71940       -0.08030
C          1.25490       -2.85300       -2.16770
N          1.18890       -4.19350       -2.02860
O          1.77000       -2.24630       -3.08870
H          1.03480        1.78200       -0.04750
H         -0.51780        1.76650       -0.92580
H         -0.50240        1.73270        0.85900
H          0.16020       -0.31720       -2.05820
H          1.68730       -0.30200       -1.19450
H          0.73320       -4.57340       -1.21430
H          1.59080       -4.79530       -2.72700
