19
gdb 1483	6.54277	1.1887	1.08159	2.8115	68.5	-0.2474	-0.0192	0.2282	1111.1501	0.169072	-310.940195	-310.931223	-310.930278	-310.974155	31.147
C          0.08640        1.55440        0.09300
C         -0.02370        0.02840        0.01750
C         -1.46290       -0.50850       -0.09320
C         -2.17210       -0.04170       -1.37320
C         -1.46630       -2.05030       -0.00060
C         -2.85570       -2.61680        0.17550
O         -3.36330       -3.45550       -0.52360
H          1.12550        1.86050        0.24860
H         -0.26220        2.03780       -0.82440
H         -0.50480        1.95330        0.92520
H          0.56020       -0.34080       -0.83670
H          0.44100       -0.40570        0.91200
H         -2.02710       -0.12410        0.77060
H         -1.61820       -0.36450       -2.26270
H         -3.18120       -0.45970       -1.44720
H         -2.26360        1.04690       -1.41080
H         -1.00860       -2.50680       -0.88430
H         -0.88330       -2.35620        0.88060
H         -3.41190       -2.18540        1.04310
