20
gdb 6472	3.23226	1.48368	1.26779	2.4545	70.54	-0.2551	0.0639	0.319	1050.3489	0.175639	-386.13046	-386.12151	-386.120566	-386.163569	33.966
C          0.59800        1.44500        0.20320
C         -0.00430        0.05320        0.04260
C          0.71100       -0.88760       -0.97750
C          1.25030       -1.74570        0.20210
O          1.06590       -3.15400        0.12810
C          2.74220       -1.58160        0.47410
O          3.11680       -2.20940        1.68240
C          0.32490       -0.96590        1.17820
H          1.67560        1.40300        0.39650
H          0.44800        2.04560       -0.70080
H          0.13510        1.97860        1.04060
H         -1.07690        0.15220       -0.14680
H          0.01860       -1.45490       -1.60590
H          1.46490       -0.42920       -1.62630
H          0.12400       -3.34280        0.17710
H          3.29670       -1.99020       -0.38720
H          3.00070       -0.52280        0.56640
H          2.73110       -3.09310        1.63880
H          0.80750       -0.57740        2.07880
H         -0.54490       -1.55620        1.48590
