14
gdb 19858	4.16468	2.47446	2.16585	3.0017	59.58	-0.2384	0.0262	0.2647	664.1265	0.110295	-378.675325	-378.669908	-378.668964	-378.704636	21.896
N          0.02320        1.41220       -0.20680
C          1.31950        0.75350        0.04660
C          0.04450       -0.03860        0.04960
C          0.42910       -0.72570       -1.28520
N         -0.28310       -0.30150       -2.48530
C          0.44810        0.60010       -3.00060
O          1.66190        0.91230       -2.45950
C          1.75330        0.10500       -1.27670
H         -0.25670        1.87220        0.65800
H          1.95630        1.06100        0.86660
H         -0.50310       -0.47050        0.87780
H          0.51340       -1.81110       -1.20870
H          0.21100        1.16610       -3.89450
H          2.71260       -0.41240       -1.25770
