19
gdb 12099	3.26181	1.73281	1.52426	1.5753	71.35	-0.2223	0.0893	0.3116	936.4523	0.164039	-365.009487	-365.001077	-365.000133	-365.041937	31.62
C         -0.22790        1.44580       -0.14150
N          0.00570        0.01490        0.03460
C          1.36970       -0.46640       -0.16790
C          0.76990       -0.45810        1.19330
C          1.29260        0.45050        2.27670
C          0.27950        0.88740        3.31330
C          2.71730        0.36380        2.64270
O          2.22510        1.46330        1.87120
H          0.59680        2.08710        0.19540
H         -0.40150        1.63460       -1.20580
H         -1.13760        1.73060        0.39780
H          1.47190       -1.39580       -0.72270
H          2.14350        0.27610       -0.35320
H          0.38340       -1.39460        1.59710
H         -0.16870        0.01680        3.80390
H          0.75130        1.51330        4.07480
H         -0.52890        1.46040        2.84900
H          3.02860        0.61270        3.65630
H          3.36920       -0.32500        2.10810
