15
gdb 14631	3.54214	1.17697	1.04058	2.6408	59.17	-0.2673	0.0031	0.2704	1120.143	0.117824	-436.980481	-436.971828	-436.970884	-437.015601	28.591
O          0.81670        1.81300       -1.49520
C          0.57270        2.06170       -0.33260
N          1.34780        1.66550        0.71240
C          2.55420        0.88060        0.51220
C          3.74300        1.72920        0.06310
O          4.08720        2.66920        1.08490
C          3.76590        3.96390        0.88820
O          3.92440        4.79960        1.72590
H         -0.31400        2.63770       -0.00440
H          1.09470        1.95090        1.64420
H          2.79540        0.37240        1.44910
H          2.35740        0.12570       -0.25520
H          4.61980        1.09650       -0.10110
H          3.49870        2.24550       -0.87160
H          3.35740        4.15550       -0.12260
