15
gdb 20934	7.61783	1.11483	0.98989	5.4863	66.61	-0.2197	-0.0103	0.2094	1145.2703	0.11818	-395.960915	-395.95292	-395.951975	-395.993986	28.086
C          0.02930        1.49350        0.12920
C         -0.00650       -0.00080       -0.17050
N         -1.36470       -0.51820       -0.02370
C         -1.63690       -1.84400        0.02170
C         -2.83940       -2.52890       -0.06060
N         -2.54000       -3.84440        0.09910
N         -1.33000       -4.06840        0.26290
O         -0.65200       -2.69490        0.21210
H          1.04770        1.87500        0.02010
H         -0.60880        2.05390       -0.56390
H         -0.31080        1.69720        1.14850
H          0.38280       -0.19690       -1.18030
H          0.63230       -0.54830        0.52710
H         -2.10970        0.06720       -0.36800
H         -3.84200       -2.16970       -0.21050
