15
gdb 12423	3.58725	1.99986	1.342	5.7965	71.73	-0.2162	-0.047	0.1692	877.6563	0.121458	-362.687404	-362.680502	-362.679558	-362.718543	26.123
O         -0.01010       -0.08840        0.48490
C         -0.02030        1.09600        0.16670
C         -1.34420        1.77950        0.06500
C         -1.64860        2.88760       -0.61180
C         -0.67580        3.68810       -1.44290
N          0.52680        4.06910       -0.71220
C          1.42790        3.14680       -0.27720
C          1.23010        1.83450        0.00250
H         -2.12960        1.23380        0.58080
H         -2.67920        3.23310       -0.61580
H         -0.39870        3.11090       -2.34150
H         -1.15290        4.60950       -1.78440
H          0.90120        4.97460       -0.94030
H          2.42770        3.55370       -0.14210
H          2.10600        1.25370        0.26870
