21
gdb 2334	5.59747	1.23311	1.11499	0.0937	75.23	-0.2615	0.0923	0.3538	1151.2167	0.194161	-274.983383	-274.974653	-274.973709	-275.016651	31.74
C         -0.17310        1.53620        0.05230
C         -0.14650        0.01430       -0.11000
C          0.92680       -0.46930       -1.09540
C          0.94730       -1.97710       -1.24490
C          0.02720       -2.67760       -2.22000
C          1.52050       -2.69040       -2.44990
C          2.14030       -1.96510       -3.62510
H          0.78860        1.91350        0.41830
H         -0.37880        2.03300       -0.90260
H         -0.94470        1.84990        0.76250
H          0.02390       -0.45630        0.86740
H         -1.12830       -0.34020       -0.44870
H          0.75530        0.00510       -2.06930
H          1.91140       -0.11710       -0.75610
H          1.09820       -2.49610       -0.30010
H         -0.47130       -3.59270       -1.91850
H         -0.56750       -2.04780       -2.87610
H          2.01250       -3.63270       -2.21970
H          1.60160       -1.04570       -3.87120
H          3.18360       -1.69440       -3.42560
H          2.12830       -2.59780       -4.51970
