16
gdb 11706	5.88461	1.35106	1.23682	3.5878	71.21	-0.252	0.0105	0.2625	986.2946	0.131365	-342.759158	-342.751769	-342.750825	-342.790641	27.85
C         -0.06460        1.57430        0.08740
C          0.05120        0.05950        0.01130
C          1.12030       -0.57080       -0.95950
C          1.73460       -1.29480        0.24770
N          2.14290       -0.22760        1.20500
C          0.73910       -0.66710        1.18070
C          2.31750       -2.59330        0.28830
N          2.78870       -3.65100        0.30840
H          0.90430        2.02060        0.32540
H         -0.40960        1.98630       -0.86660
H         -0.78130        1.87620        0.85890
H         -0.92420       -0.39690       -0.17970
H          0.68290       -1.24900       -1.69290
H          1.80130        0.12620       -1.45220
H          2.59810       -0.68060        1.99770
H          0.27730       -1.09660        2.06170
