18
gdb 3241	8.01379	1.35411	1.32962	1.0336	68.84	-0.2292	0.0928	0.322	967.1248	0.160498	-289.791234	-289.784015	-289.783071	-289.822918	26.764
C         -0.22210        1.63830        0.04190
C         -0.21480        0.15070       -0.21690
C         -0.18490       -0.81660        0.93590
C         -1.43740       -0.67120        0.10660
N          1.12480        2.14630        0.29720
C          1.89270        2.54390       -0.87850
C          1.33210        3.56720        0.04620
H         -0.69970        2.16260       -0.80840
H         -0.83170        1.85260        0.92900
H          0.33940       -0.14390       -1.10450
H          0.39910       -1.72430        0.83280
H         -0.18570       -0.40170        1.93820
H         -2.28620       -0.16320        0.55330
H         -1.71020       -1.47660       -0.56630
H          2.95100        2.29960       -0.86120
H          1.41900        2.44950       -1.85520
H          0.48730        4.15160       -0.31650
H          1.97250        4.08540        0.75450
