15
gdb 13466	3.17492	1.85258	1.32515	2.5927	62.82	-0.25	-0.0224	0.2277	915.9179	0.117809	-399.843005	-399.834959	-399.834015	-399.875995	28.257
C         -0.04550        1.39530        0.39780
C          0.10600       -0.02510       -0.09950
O          1.16750       -0.51090       -0.41570
C         -1.18260       -0.83060       -0.12010
C         -1.07860       -2.33940       -0.44860
N         -1.54640       -2.60440        0.92110
C         -1.63490       -1.29830        1.30840
O         -1.92060       -0.74550        2.33560
H          0.93290        1.86700        0.49320
H         -0.66630        1.97360       -0.29660
H         -0.56740        1.38730        1.36190
H         -1.97830       -0.28590       -0.63460
H         -1.75760       -2.69890       -1.22640
H         -0.05550       -2.66550       -0.64600
H         -1.64410       -3.45740        1.45130
