19
gdb 6707	6.11831	0.77196	0.71538	4.0254	73.5	-0.2691	0.034	0.3031	1566.5869	0.163215	-365.081397	-365.071668	-365.070724	-365.116942	33.596
C          0.06340        1.50360        0.10370
C         -0.03130       -0.02060       -0.00100
C         -1.46730       -0.49780       -0.18280
O          0.70030       -0.52450       -1.12030
C          2.09810       -0.51140       -0.98310
C          2.65860       -1.28750       -2.18330
C          4.11670       -1.34130       -2.17160
N          5.27140       -1.37370       -2.14450
H          1.09310        1.84130        0.25150
H         -0.32550        1.97070       -0.80690
H         -0.52520        1.86180        0.95400
H          0.38500       -0.46930        0.91670
H         -1.89370       -0.07710       -1.09890
H         -1.50190       -1.58770       -0.25770
H         -2.08690       -0.18480        0.66240
H          2.50840        0.50880       -0.98200
H          2.41110       -0.99470       -0.04410
H          2.25530       -2.30520       -2.17770
H          2.31960       -0.81190       -3.10950
