19
gdb 6490	3.75495	1.29288	1.25622	3.6816	71.42	-0.2367	0.0334	0.2701	1065.7865	0.164397	-365.092459	-365.083388	-365.082443	-365.126344	33.543
C          0.02640        1.60880        0.20400
C         -0.07800        0.13050       -0.12710
C         -1.36610       -0.28200       -0.82520
C         -2.67330       -0.03690       -0.06210
N         -2.62460       -0.28700        1.28010
O         -3.69430        0.30730       -0.62400
C          1.18610       -0.58060       -0.54040
C          0.58220       -0.86140        0.81520
H          0.98030        1.83870        0.68840
H         -0.04260        2.21680       -0.70520
H         -0.77740        1.92670        0.87680
H         -1.47560        0.24690       -1.77660
H         -1.33090       -1.35280       -1.06350
H         -1.75590       -0.46990        1.75080
H         -3.45200       -0.10570        1.82420
H          1.11850       -1.35570       -1.29620
H          2.10450       -0.00430       -0.57760
H          1.09540       -0.47590        1.69040
H          0.11430       -1.82970        0.96560
