15
gdb 20282	5.4278	2.18028	2.09531	3.303	63.28	-0.2284	0.0644	0.2928	684.898	0.121331	-362.550717	-362.545606	-362.544661	-362.579592	21.811
C         -0.04730        1.49510        0.00950
C          1.46250        1.26360       -0.00580
C          1.18960        0.10040        1.00510
C          2.14520       -1.05000        0.70600
O          1.53860       -2.12640       -0.02360
C          2.13150       -1.04270       -0.75350
C          1.17060        0.11060       -1.02310
N          0.01740       -0.03810        0.00120
H         -0.50140        1.90300        0.91690
H         -0.51830        1.91210       -0.88500
H          2.28330        1.99120       -0.00980
H          0.89460        0.31340        2.03330
H          2.99320       -1.29640        1.33580
H          2.96750       -1.28250       -1.40150
H          0.85640        0.33390       -2.04330
