17
gdb 16728	3.60115	1.72586	1.69934	4.1326	70.77	-0.2822	0.0338	0.316	855.1928	0.145089	-326.74648	-326.739687	-326.738743	-326.777363	26.542
N          0.69780       -0.81460        1.02740
C          0.37030        0.19010        0.55720
C         -0.04960        1.45490       -0.04590
C         -0.90370        2.32390        0.93330
C          0.06740        3.32120        1.54370
C          1.36180        2.79490        2.11320
C          1.32850        3.34100        0.70700
C          1.16530        2.35630       -0.43930
H         -0.63390        1.19330       -0.93290
H         -1.66510        2.85850        0.35550
H         -1.42490        1.70570        1.66960
H         -0.34440        4.23520        1.95640
H          1.84950        3.40810        2.86300
H          1.48420        1.72880        2.27250
H          1.84890        4.26960        0.50140
H          2.05960        1.76020       -0.64200
H          0.91740        2.89890       -1.35770
