20
gdb 12004	3.10255	1.98155	1.72732	1.778	73.3	-0.2542	0.0838	0.338	883.2429	0.177401	-349.011613	-349.003832	-349.002888	-349.042983	30.929
C          0.03880        1.53010        0.02310
C         -0.00980       -0.00250       -0.00420
C         -1.46560       -0.49930       -0.01040
C          0.79180       -0.58870       -1.20770
C          1.37420       -1.94270       -0.73400
C          1.52080       -1.76190        0.76300
O          2.13870       -0.51680        1.12950
C          0.70980       -0.61820        1.19220
H          1.07100        1.87910        0.12200
H         -0.37830        1.95290       -0.89760
H         -0.53880        1.93210        0.86330
H         -2.01000       -0.08560       -0.86570
H         -1.52030       -1.59130       -0.07360
H         -1.99350       -0.19200        0.89960
H          0.16690       -0.69120       -2.09920
H          1.61060        0.08940       -1.45820
H          0.68420       -2.77360       -0.92550
H          2.32040       -2.18700       -1.22700
H          1.75160       -2.60210        1.41360
H          0.28070       -0.53510        2.18950
