24
gdb 8948	3.58358	1.12317	0.91314	1.0264	82.38	-0.2473	0.085	0.3323	1374.4738	0.220716	-351.408443	-351.397626	-351.396682	-351.444224	38.807
C         -0.01880        1.61130        0.02140
C         -0.05710        0.08110       -0.06570
C          0.73480       -0.50960       -1.24810
C          2.21030       -0.08260       -1.22500
C          0.63040       -2.04800       -1.30510
C         -0.80570       -2.58120       -1.30600
O          1.30450       -2.45320       -2.49650
C          1.79960       -3.76940       -2.48170
H          0.98750        1.98750        0.22540
H         -0.36180        2.06850       -0.91380
H         -0.67190        1.96900        0.82370
H          0.32620       -0.34520        0.87270
H         -1.10420       -0.23080       -0.13700
H          0.28460       -0.13790       -2.18060
H          2.76070       -0.58030       -2.02490
H          2.31990        0.99700       -1.35700
H          2.67830       -0.34970       -0.26890
H          1.16810       -2.46470       -0.43450
H         -1.39300       -2.09990       -2.09490
H         -0.81700       -3.65980       -1.48740
H         -1.30140       -2.40940       -0.34720
H          2.49510       -3.93430       -1.64340
H          1.00330       -4.52620       -2.41740
H          2.33980       -3.92110       -3.42010
