16
gdb 614	6.93163	2.19523	1.89616	1.3825	57.04	-0.2572	0.0794	0.3366	693.1326	0.142338	-271.614051	-271.606889	-271.605945	-271.644868	25.586
C         -0.01080        1.55790       -0.14470
C          0.02670        0.05480        0.03930
C          1.31040       -0.72400       -0.11050
C          0.64520       -0.62680        1.24140
C          1.29910        0.13210        2.36500
O          2.24150       -0.73480        2.98720
H          0.91680        2.03570        0.18270
H         -0.14990        1.81090       -1.20170
H         -0.83620        2.01270        0.41490
H         -0.86220       -0.44390       -0.33970
H          1.29800       -1.67410       -0.63300
H          2.22430       -0.15400       -0.25030
H          0.13620       -1.52300        1.58630
H          1.79380        1.03670        1.98010
H          0.53540        0.46210        3.08840
H          2.60400       -0.27780        3.75200
