15
gdb 23890	3.26476	1.40623	1.23002	1.7687	50.22	-0.2903	0.0696	0.3599	999.7396	0.113789	-531.315374	-531.306787	-531.305843	-531.348852	30.454
C         -0.01390        1.58670        0.05900
C         -0.02830        0.05810       -0.00310
C          0.72130       -0.47760       -1.22870
O          2.07270       -0.06730       -1.27910
C          0.66230       -2.00550       -1.30500
F         -0.59740       -2.45960       -1.23330
F          1.19840       -2.46840       -2.43640
F          1.35180       -2.54970       -0.27980
H          1.01110        1.96560        0.05160
H         -0.53580        2.02090       -0.80070
H         -0.50840        1.94410        0.96640
H          0.43420       -0.36480        0.89830
H         -1.05660       -0.31670       -0.02840
H          0.25930       -0.09900       -2.14720
H          2.52260       -0.45470       -0.51850
