14
gdb 4622	5.71464	1.59351	1.25595	7.8031	67.68	-0.2288	-0.0273	0.2015	914.4672	0.109196	-378.774585	-378.767621	-378.766676	-378.806296	25.026
C         -0.02970        1.49010        0.01000
N         -0.00830        0.03430        0.00100
C         -1.18140       -0.68980        0.00410
C         -1.15520       -2.03570       -0.00340
C          0.12060       -2.76190       -0.01490
O          0.19780       -3.97390       -0.02220
N          1.28490       -1.95130       -0.01770
C          1.16630       -0.67370       -0.01000
H          0.99630        1.86040        0.00280
H         -0.54630        1.87760       -0.87360
H         -0.53010        1.86700        0.90750
H         -2.09450       -0.10490        0.01280
H         -2.07360       -2.60860       -0.00120
H          2.06060       -0.04920       -0.01200
