18
gdb 17537	3.73697	1.84506	1.60364	1.7306	71.31	-0.2402	0.0776	0.3177	867.2082	0.15376	-347.750756	-347.743247	-347.742302	-347.782359	29.224
O         -0.03290        1.41470        0.09910
C         -0.07430        0.01560        0.07370
C         -0.44300       -0.82360        1.26210
C         -1.54350       -0.13380        2.08200
C         -2.42080       -0.09840        0.81270
C         -3.88400       -0.39330        0.75070
C         -3.37850        0.97910        0.35770
C         -1.34060       -0.78100       -0.00500
H         -0.93550        1.73640        0.00660
H          0.74790       -0.38650       -0.51360
H          0.18930       -1.62730        1.62000
H         -1.96540       -0.77460        2.85990
H         -1.26480        0.83070        2.51830
H         -4.24300       -1.04750       -0.03780
H         -4.42600       -0.48560        1.68660
H         -3.58140        1.80450        1.03320
H         -3.40560        1.24430       -0.69510
H         -1.51920       -1.53670       -0.76260
