13
gdb 1398	6.89864	1.43128	1.24299	2.3425	60.22	-0.2691	0.0174	0.2865	901.0198	0.100805	-303.468081	-303.460314	-303.45937	-303.500018	27.234
N          0.00540        1.53090        0.01180
C         -0.00650        0.07300       -0.04730
C         -1.44890       -0.47130        0.12060
C         -2.01380       -0.16590        1.42660
C         -2.47490        0.06180        2.51180
C          0.58200       -0.46870       -1.29360
N          1.04350       -0.84760       -2.28380
H          0.95930        1.87700       -0.01540
H         -0.47020        1.91800       -0.79860
H          0.59400       -0.29980        0.78940
H         -2.07560       -0.05040       -0.67590
H         -1.43520       -1.55520       -0.04020
H         -2.88720        0.27230        3.46750
