22
gdb 6842	2.98514	1.53181	1.34166	0.9447	78.7	-0.2429	0.086	0.3288	1078.8931	0.19844	-350.195464	-350.186016	-350.185072	-350.229117	35.132
C          0.22320        1.55090       -0.28660
O         -0.30580        0.29940       -0.65930
C          0.66210       -0.59370       -1.14140
C          1.63370       -1.28280       -0.14530
C          1.40940       -2.60320       -0.93200
C          0.12010       -1.99000       -1.57070
C         -1.14300       -2.38270       -0.79870
C         -0.07060       -2.19950       -3.06980
H          0.95220        1.46420        0.53320
H          0.71900        2.05070       -1.13420
H         -0.61090        2.17160        0.05010
H          1.22490       -0.12750       -1.96770
H          2.65400       -0.89940       -0.07490
H          1.19990       -1.32250        0.85760
H          2.19180       -2.77920       -1.67590
H          1.27740       -3.51580       -0.34540
H         -1.01980       -2.25810        0.28060
H         -1.99390       -1.76680       -1.10350
H         -1.38990       -3.43270       -0.99250
H         -0.29210       -3.24900       -3.29660
H         -0.90370       -1.59580       -3.44820
H          0.82870       -1.92040       -3.62960
