15
gdb 1504	5.05847	1.42126	1.1325	1.1132	58.44	-0.2506	-0.0939	0.1567	1011.9019	0.122047	-345.681183	-345.672963	-345.672018	-345.714683	27.451
C         -0.22300        1.51020       -0.26490
C          0.08140        0.03800        0.02040
C          0.62390       -0.69590       -1.20530
C          0.93470       -2.15110       -0.95730
O          0.78530       -2.72680        0.09620
C          1.48510       -2.96210       -2.14110
O          1.67630       -2.50090       -3.23520
H          0.67560        2.04830       -0.58660
H         -0.97170        1.61640       -1.05780
H         -0.60960        2.01190        0.62700
H          0.80640       -0.04680        0.83740
H         -0.82120       -0.47350        0.37240
H         -0.07570       -0.64710       -2.05180
H          1.53890       -0.22380       -1.59060
H          1.68740       -4.02180       -1.87620
