16
gdb 9240	6.3772	0.78146	0.71765	1.2872	83.57	-0.2476	-0.0236	0.224	1538.298	0.12727	-346.550217	-346.540825	-346.539881	-346.584462	33.368
C         -0.00950        1.56420        0.05990
C         -0.03090        0.03720       -0.02030
C          0.73420       -0.49580       -1.24960
O          2.09240       -0.06180       -1.26850
C          0.63540       -1.95360       -1.34480
C          0.57500       -3.16230       -1.38500
C          0.50540       -4.52030       -1.43430
C          0.44400       -5.72550       -1.47640
H          1.01810        1.93580        0.07180
H         -0.51660        2.01170       -0.80220
H         -0.51560        1.91410        0.96410
H          0.41740       -0.40250        0.87990
H         -1.06050       -0.33540       -0.06670
H          0.29350       -0.05210       -2.15220
H          2.56140       -0.54740       -0.58020
H          0.38930       -6.78510       -1.51520
