22
gdb 6797	6.29173	0.62407	0.591	0.054	75.61	-0.2612	0.0727	0.334	1896.3366	0.197986	-387.341625	-387.331063	-387.330119	-387.377718	37.261
C          0.00490        1.57000        0.06620
C          0.00420        0.04130        0.03740
O          0.73660       -0.49270        1.14090
C         -1.41330       -0.54160       -0.03310
C         -1.43960       -2.06940       -0.13820
C         -2.85570       -2.65040       -0.12450
C         -2.87450       -4.16910       -0.23440
O         -4.22870       -4.59690       -0.20430
H          1.02820        1.94880        0.13590
H         -0.46060        1.98550       -0.83350
H         -0.55740        1.94190        0.93250
H          0.56670       -0.29770       -0.84240
H          0.31200       -0.17850        1.94740
H         -1.96860       -0.22180        0.86230
H         -1.93870       -0.09770       -0.88910
H         -0.92560       -2.37360       -1.06090
H         -0.85140       -2.48630        0.68740
H         -3.37350       -2.36470        0.79980
H         -3.44700       -2.23610       -0.95090
H         -2.37960       -4.48000       -1.16950
H         -2.29900       -4.60810        0.59730
H         -4.24200       -5.55590       -0.27130
