20
gdb 17687	4.53788	1.51053	1.46654	0.1863	79.2	-0.2645	0.095	0.3595	963.1408	0.178917	-311.808153	-311.801103	-311.800159	-311.839644	28.411
C         -0.18690        1.38740       -0.16770
C          1.23530        0.98640        0.13260
C          0.15010       -0.06260        0.08560
C         -0.30550       -0.74330        1.33120
C         -0.43180       -0.13900        2.76800
C         -0.88490       -1.62000        2.89900
C         -1.69360       -1.41790        1.58850
C          0.33160       -2.00000        2.01130
H         -0.73360        1.91970        0.60320
H         -0.43740        1.68710       -1.17920
H          1.96090        1.01100       -0.67280
H          1.63860        1.25090        1.10420
H          0.15330       -0.70740       -0.79030
H          0.50080        0.13340        3.27120
H         -1.20300        0.62320        2.91550
H         -1.21890       -2.12210        3.80710
H         -2.55850       -0.74990        1.63920
H         -1.91590       -2.31530        1.00330
H          0.26300       -2.94160        1.45820
H          1.32480       -1.86630        2.45020
