17
gdb 18774	3.95463	2.44605	2.12835	1.6768	70.55	-0.2226	0.0847	0.3073	725.1164	0.143663	-326.645302	-326.639233	-326.638288	-326.675017	25.136
C         -0.03040        1.45330        0.01480
C          0.08060       -0.03670        0.03780
C          0.25770       -1.03450       -1.04730
C          0.61150       -2.08720        0.03080
C         -0.88600       -2.09050        0.46700
C         -0.51760       -1.57720        1.86770
C          0.68990       -0.94970        1.12890
N         -1.09320       -0.86560       -0.41680
H          0.95860        1.92440        0.01750
H         -0.56680        1.78080       -0.88040
H         -0.58260        1.81810        0.88870
H          0.43010       -0.94230       -2.11360
H          1.28050       -2.94210       -0.02270
H         -1.61000       -2.88210        0.27820
H         -1.22250       -0.91990        2.38540
H         -0.21110       -2.39740        2.52470
H          1.60940       -0.64120        1.62360
