17
gdb 11530	5.63084	1.05629	0.95607	4.086	67.06	-0.2442	0.0278	0.272	1195.4287	0.141155	-400.995259	-400.986672	-400.985727	-401.029259	29.657
C         -0.24250        1.33970        0.20130
N         -0.03350       -0.08040       -0.04340
C         -0.05130       -0.99020        1.08480
C         -1.41700       -1.12330        1.72450
C         -1.56570       -1.42670        3.15260
O         -1.78840       -0.10580        2.65820
C          0.22600       -0.52410       -1.30820
O          0.27540        0.16470       -2.30440
H          0.51790        1.72510        0.89110
H         -0.16200        1.85290       -0.75670
H         -1.22650        1.52370        0.64140
H          0.27600       -1.97520        0.73210
H          0.66200       -0.65500        1.85040
H         -2.21790       -1.41790        1.04460
H         -2.45160       -1.95400        3.50180
H         -0.67770       -1.54940        3.77180
H          0.39190       -1.62010       -1.32840
