16
gdb 12392	2.92862	2.26947	1.39125	3.4469	61.31	-0.2518	0.0059	0.2576	880.6504	0.130901	-420.910822	-420.903382	-420.902438	-420.942802	27.305
C          0.18480        1.55190       -0.08880
C          0.07880        0.03470       -0.01000
O          0.60980       -0.51020       -1.20830
C          0.78580       -1.90740       -1.10810
C          1.84230       -2.19190       -0.06190
O          1.50040       -1.60780        1.20690
C          0.73080       -0.49820        1.27610
O          0.52210        0.01120        2.34340
H          1.23030        1.85440       -0.19390
H         -0.37070        1.91370       -0.95710
H         -0.22250        1.99720        0.81940
H         -0.98460       -0.25260        0.07960
H         -0.16190       -2.40820       -0.85020
H          1.11230       -2.26880       -2.08740
H          1.95940       -3.26410        0.12040
H          2.80640       -1.78010       -0.38130
