18
gdb 9389	3.5312	1.03699	0.84445	1.8181	70.74	-0.2576	0.0305	0.2881	1367.6167	0.150039	-384.890027	-384.880096	-384.879152	-384.925557	34.347
C         -0.01110        0.92420        1.10940
C         -0.13110       -0.02640       -0.06910
O         -1.37300       -0.69780        0.01890
C         -1.59400       -1.60590       -1.02810
C         -2.94390       -2.30360       -0.79420
O         -3.30080       -3.07200       -1.93900
C         -2.93840       -3.11130        0.42620
C         -2.91170       -3.82710        1.39140
H          0.94370        1.45730        1.07290
H         -0.82070        1.65930        1.09350
H         -0.06710        0.37340        2.05250
H         -0.06550        0.52560       -1.02190
H          0.69430       -0.75820       -0.06380
H         -1.64140       -1.09800       -2.00450
H         -0.79240       -2.36250       -1.07970
H         -3.70820       -1.52270       -0.70850
H         -2.83340       -3.91230       -1.88100
H         -2.90160       -4.44340        2.25630
