19
gdb 2551	2.32831	2.18435	1.23211	1.9788	63.73	-0.2536	0.0725	0.3261	998.5187	0.169955	-348.047695	-348.038472	-348.037528	-348.081467	32.362
C         -0.26890        1.17350        0.79610
C          0.01380       -0.24470        0.28960
C          0.64850       -0.31960       -1.10940
C          2.11460        0.11370       -1.11000
O          2.55700        0.19820       -2.45990
C          0.51450       -1.73260       -1.70070
O         -0.83730       -2.14580       -1.85620
H          0.64420        1.76800        0.90420
H         -0.93250        1.71130        0.10960
H         -0.75750        1.14750        1.77530
H          0.66010       -0.77240        1.00540
H         -0.92300       -0.80960        0.25160
H          0.11310        0.37170       -1.77880
H          2.22260        1.08400       -0.60360
H          2.71210       -0.61970       -0.54200
H          3.49090        0.42630       -2.45710
H          1.06200       -1.78610       -2.64960
H          0.96610       -2.46090       -1.01540
H         -1.22850       -1.60190       -2.54720
