16
gdb 20877	6.90271	1.06966	0.99484	1.9929	66.16	-0.2844	-0.0236	0.2608	1180.8494	0.132174	-376.100434	-376.092739	-376.091795	-376.133946	26.778
C         -0.01130        1.55500        0.05500
C          0.00410        0.02560        0.02690
C         -1.41320       -0.57450       -0.05070
C         -1.40710       -2.06600       -0.05160
N         -1.60220       -2.81900       -1.13130
N         -1.47210       -4.03740       -0.62150
N         -1.21670       -4.07220        0.67700
N         -1.17060       -2.82260        1.05620
H          1.00420        1.95860        0.10850
H         -0.48620        1.96440       -0.84350
H         -0.56530        1.93000        0.92270
H          0.58720       -0.32740       -0.83210
H          0.50260       -0.36300        0.92200
H         -2.00000       -0.22890        0.80770
H         -1.91880       -0.22780       -0.95710
H         -1.57040       -4.87590       -1.17400
