19
gdb 5871	4.24712	0.97398	0.95431	5.4386	72.36	-0.2806	0.0405	0.3211	1286.3167	0.162942	-365.09112	-365.081461	-365.080517	-365.125473	35.017
C         -0.03980        1.58140        0.16930
C          0.02280        0.05300        0.02560
C          0.71950       -0.56960        1.24380
O         -1.30060       -0.48150       -0.10310
C          0.75270       -0.38460       -1.25750
C          0.03460        0.04700       -2.55200
C          0.69240       -0.47910       -3.74490
N          1.22620       -0.90040       -4.67940
H          0.96210        2.02200        0.19100
H         -0.60320        2.03650       -0.64930
H         -0.53950        1.85330        1.10620
H          0.19950       -0.29050        2.16750
H          0.71730       -1.66020        1.16690
H          1.75580       -0.22740        1.33100
H         -1.80290       -0.22780        0.67830
H          1.77300        0.01110       -1.24820
H          0.83030       -1.47620       -1.25200
H         -1.00000       -0.30700       -2.52520
H         -0.00230        1.13810       -2.63760
