15
gdb 18462	3.53799	1.84533	1.51143	2.6762	62.86	-0.2562	0.0159	0.2721	865.1374	0.118131	-399.74718	-399.739886	-399.738942	-399.779108	26.65
C          0.20420        0.89190       -0.37680
O         -0.44920       -0.02900        0.48330
C          0.40170       -0.63340        1.38040
C          0.15060       -2.01650        1.84350
O         -0.43730       -2.80920        0.78790
C          0.71170       -2.64660        0.01430
N          1.02510       -3.15090       -1.08760
C          1.39180       -1.74360        0.99160
H          0.97340        0.39380       -0.98080
H         -0.56200        1.30560       -1.03490
H          0.67050        1.71090        0.19040
H          0.82070        0.02670        2.14560
H          0.02010       -2.36960        2.85770
H          0.28040       -3.75180       -1.44450
H          2.44660       -1.71890        1.22290
