16
gdb 9306	5.15124	0.94747	0.82708	2.7775	67.22	-0.2524	-0.0699	0.1825	1322.1281	0.12914	-417.068763	-417.059835	-417.058891	-417.103017	31.335
N          0.26900        1.10400        0.00920
C         -0.09540       -0.17620       -0.28060
C          1.05540       -1.13250       -0.38810
O          2.19840       -0.81230       -0.16910
N         -1.26160       -0.66170       -0.49210
C         -2.41380        0.21890       -0.39680
C         -3.65520       -0.56320       -0.82900
O         -3.79240       -1.74710       -0.07420
H          1.23470        1.23830        0.26970
H         -0.40720        1.76540        0.34840
H          0.74880       -2.15430       -0.67870
H         -2.54780        0.55700        0.64430
H         -2.29120        1.11920       -1.02170
H         -4.55830        0.03460       -0.66710
H         -3.58170       -0.77800       -1.90770
H         -2.92200       -2.16620       -0.10610
