15
gdb 2648	14.89978	0.81849	0.79794	2.8287	67.23	-0.2453	-0.0257	0.2196	1379.1767	0.121992	-308.507004	-308.498208	-308.497264	-308.542643	28.131
C         -0.02300        1.50200       -0.03590
C          0.00480        0.04650       -0.05910
C          0.03870       -1.15670       -0.08150
C          0.04760       -2.61400       -0.09620
C         -1.31460       -3.22250        0.31380
C         -1.32080       -4.72800        0.17600
O         -1.66100       -5.49980        1.03420
H          0.64900        1.90100        0.73190
H          0.28790        1.92210       -0.99880
H         -1.02970        1.87720        0.17890
H          0.31650       -2.97440       -1.09860
H          0.82740       -2.98890        0.57920
H         -1.57950       -2.95360        1.33880
H         -2.08970       -2.82340       -0.35460
H         -0.97670       -5.09640       -0.82050
