13
gdb 3851	3.87834	3.26989	1.79682	2.3237	55.73	-0.1981	0.0405	0.2386	662.9094	0.105077	-336.822591	-336.815977	-336.815033	-336.852707	24.543
N          0.09480        1.41070        0.06350
C          0.00070        0.02230        0.01060
C         -1.12640       -0.78490        0.02720
N         -2.45290       -0.26310        0.01280
C         -0.61020       -2.10450        0.03980
N          0.71560       -2.12850        0.02470
N          1.06690       -0.81170        0.01620
H          0.69890        1.80480       -0.64880
H         -0.83790        1.80060       -0.03010
H         -2.94500       -0.46230        0.87860
H         -3.00460       -0.66810       -0.73670
H         -1.16130       -3.03520        0.04640
H          2.04030       -0.56500        0.05860
