14
gdb 17941	3.48771	2.4185	2.14589	2.217	61.23	-0.2295	-0.0028	0.2267	692.4907	0.107683	-382.483028	-382.477086	-382.476142	-382.5126	24.513
O         -0.08950        1.42780       -0.01620
C          0.02950        0.06250       -0.00130
C         -0.98220       -1.00750       -0.00620
O         -0.44750       -1.72890       -1.07530
C          0.79410       -0.89270       -1.00500
C          1.75840       -1.67690       -0.17160
C          1.28940       -1.70270        1.08940
C          0.08650       -0.85530        1.19620
H          0.64290        1.80320        0.48740
H         -2.04400       -1.07260        0.19430
H          1.07470       -0.54600       -1.99770
H          2.58300       -2.25200       -0.57050
H          1.67020       -2.31180        1.90040
H         -0.34310       -0.53200        2.13690
