15
gdb 11648	3.28306	1.92359	1.51176	5.2297	66.75	-0.2822	0.0262	0.3085	850.6859	0.119868	-362.624166	-362.617218	-362.616273	-362.655195	26.574
O         -0.02350        1.43960       -0.05830
C          0.01800        0.04610        0.01470
C         -0.05370       -0.67060        1.40500
C         -1.51340       -0.13780        1.52560
C         -1.37400       -0.65000        0.05230
C         -0.63080       -1.89180        0.63640
C         -2.37700       -0.64110       -0.98250
N         -3.17990       -0.64040       -1.81470
H          0.87760        1.77580       -0.04320
H          0.72780       -0.38470       -0.70290
H          0.70940       -0.68670        2.18160
H         -2.19080       -0.71110        2.16150
H         -1.63800        0.93660        1.64390
H          0.03720       -2.42350       -0.04600
H         -1.25170       -2.57710        1.21450
