15
gdb 17717	4.88089	2.66017	2.18031	1.6314	68.56	-0.2194	-0.008	0.2115	654.8624	0.120867	-325.395576	-325.390465	-325.389521	-325.424265	22.315
C         -0.08960        1.58120        0.00050
C          1.43140        1.25520        0.00500
C          1.29860        0.15290        1.07630
C          1.75370       -1.00200        0.16100
C          0.63530       -2.05590        0.23050
C         -0.50880       -1.35590        0.22130
C          0.02610        0.05880        0.16660
N          1.18380        0.00440       -0.87010
H         -0.47990        2.14450        0.85130
H         -0.50090        1.93430       -0.94860
H          2.26360        1.93060       -0.19210
H          1.33510        0.23870        2.16870
H          2.78600       -1.33650        0.04560
H          0.77090       -3.12830        0.24350
H         -1.53420       -1.69250        0.23030
