13
gdb 1214	8.73264	1.2013	1.06984	4.8662	54.79	-0.2672	0.0122	0.2794	1001.9371	0.10097	-340.691219	-340.683171	-340.682227	-340.725385	26.468
N         -0.05390        1.34550        0.00930
C          0.06670       -0.01080        0.00030
O          1.14170       -0.57810       -0.01440
C         -1.26230       -0.76840        0.01020
C         -1.01930       -2.28520       -0.00110
C         -2.27000       -3.03890        0.00790
N         -3.26860       -3.62040        0.01530
H          0.78540        1.90130        0.00370
H         -0.94430        1.81090        0.02160
H         -1.84080       -0.48120        0.89540
H         -1.85950       -0.47120       -0.85920
H         -0.43360       -2.56210       -0.88230
H         -0.41490       -2.57210        0.86420
