16
gdb 18237	4.8119	1.63589	1.34147	3.2542	68.41	-0.237	0.0205	0.2575	927.3358	0.132002	-379.904123	-379.896913	-379.895969	-379.935859	26.516
C          0.11540        1.40610        0.09260
N          0.20180       -0.04550        0.07760
C          0.52140       -0.63050       -0.99020
O          0.83220       -0.01320       -2.17970
C          0.84650       -0.95370       -3.26790
C          0.80020       -2.32820       -2.63190
N          1.92420       -2.52720       -1.70660
C          0.59570       -2.10380       -1.18150
H          1.03230        1.82480        0.52590
H         -0.02400        1.85250       -0.89900
H         -0.71220        1.70560        0.74320
H         -0.02970       -0.77930       -3.90390
H          1.75750       -0.78310       -3.84860
H          0.36470       -3.16350       -3.16780
H          2.03230       -3.52240       -1.52140
H          0.03110       -2.75470       -0.52790
