13
gdb 307	9.37628	2.54337	2.24698	3.855	50.75	-0.2465	0.0387	0.2852	578.1159	0.108284	-286.519735	-286.513686	-286.512742	-286.549288	21.755
C         -0.06500        1.58660        0.01950
C          0.01110        0.06790       -0.01510
C          0.71810       -0.58920       -1.24040
C          1.72750       -1.16310       -0.21510
O          2.69230       -1.87780       -0.25110
N          1.07080       -0.53020        0.81320
H          0.90930        2.02920       -0.21080
H         -0.79440        1.94960       -0.71200
H         -0.37740        1.94450        1.00640
H         -0.97350       -0.36930        0.19020
H          0.14230       -1.34790       -1.77300
H          1.15280        0.11250       -1.95520
H          1.21300       -0.55980        1.81240
