18
gdb 14766	8.05623	0.684	0.65509	1.657	71.42	-0.2644	0.0493	0.3137	1667.6737	0.151293	-384.89206	-384.882507	-384.881563	-384.927433	33.131
O         -0.07170        1.45250       -0.12790
C          0.00380        0.04570       -0.01650
C         -1.38040       -0.58130        0.03930
O         -2.03890       -0.22240       -1.16350
C         -3.39250       -0.61590       -1.21400
C         -3.96280       -0.14810       -2.55740
C         -5.36410       -0.51130       -2.71570
C         -6.51980       -0.82380       -2.81900
H         -0.68890        1.62320       -0.84900
H          0.56320       -0.39690       -0.85620
H          0.54830       -0.17960        0.90630
H         -1.31200       -1.67700        0.13720
H         -1.93580       -0.19110        0.90680
H         -3.48420       -1.70940       -1.12630
H         -3.96170       -0.16910       -0.38420
H         -3.84130        0.93930       -2.63120
H         -3.36200       -0.58480       -3.36400
H         -7.54140       -1.09350       -2.92370
