14
gdb 2079	4.76846	2.61131	1.80081	3.93	53.53	-0.2295	0.0112	0.2407	679.5704	0.115865	-361.738091	-361.731932	-361.730988	-361.76832	22.587
O          0.01410        0.04360        0.48740
C         -0.01960        1.14530        0.01160
C         -1.32840        1.92430       -0.14830
N         -1.30630        3.12540       -0.97740
C         -0.07200        3.86850       -0.74560
C          1.15610        3.01680       -1.03060
O          1.13930        1.75640       -0.33350
H         -2.08110        1.22210       -0.51290
H         -1.63300        2.19730        0.87200
H         -1.36160        2.86350       -1.95740
H         -0.05090        4.76330       -1.37640
H         -0.06450        4.20410        0.29930
H          1.22770        2.80480       -2.10610
H          2.08210        3.51220       -0.72210
