19
gdb 2103	4.41481	2.32342	1.67336	1.2016	67.56	-0.2416	0.0898	0.3314	800.6113	0.173543	-310.941319	-310.934382	-310.933438	-310.971767	27.113
C         -0.01330        1.52650        0.06330
C          0.02860        0.00750       -0.01170
C          0.71040       -0.51720       -1.28250
C          0.83010       -2.04750       -1.24690
C          1.48560       -2.49410        0.06690
C          0.75790       -1.85960        1.25360
O          0.71360       -0.44700        1.15230
H          1.00150        1.93640        0.04600
H         -0.56930        1.93910       -0.78410
H         -0.49650        1.84980        0.98920
H         -1.00510       -0.38600        0.01360
H          0.14600       -0.19110       -2.16390
H          1.70920       -0.06640       -1.35100
H         -0.17250       -2.49130       -1.32030
H          1.39740       -2.41160       -2.11010
H          1.47280       -3.58590        0.16440
H          2.53540       -2.17600        0.08570
H         -0.26780       -2.26510        1.32010
H          1.26480       -2.08110        2.19780
