13
gdb 1002	4.12084	3.39907	1.8849	3.4953	55.38	-0.1908	0.0385	0.2293	642.7623	0.103394	-340.693392	-340.686888	-340.685944	-340.72369	23.477
C         -0.00510        1.44550       -0.00140
N          0.01260        0.00170       -0.03730
C          0.05980       -0.81440       -1.16510
C          0.06320       -2.09710       -0.74900
N          0.01830       -2.07420        0.64180
C         -0.01400       -0.77220        1.12090
O         -0.05560       -0.38860        2.27630
H          0.89930        1.86660       -0.45410
H         -0.88150        1.84590       -0.52250
H         -0.04860        1.73630        1.04970
H          0.08600       -0.40470       -2.16030
H          0.09280       -3.01460       -1.30980
H          0.00950       -2.86530        1.25980
