17
gdb 6645	7.16505	0.80999	0.73773	1.8012	72.18	-0.2683	0.0298	0.2981	1488.7223	0.139658	-363.839594	-363.830308	-363.829364	-363.874311	32.359
C         -0.00790        1.44380       -0.17620
C         -0.01390       -0.03170        0.10340
N         -0.04220       -0.49270        1.28390
O          0.01540       -0.72530       -1.07210
C          0.01500       -2.14560       -1.01390
C          0.05040       -2.64960       -2.45990
C          0.05310       -4.10470       -2.52540
C          0.05450       -5.30590       -2.54760
H          0.88710        1.71810       -0.74330
H         -0.87420        1.71700       -0.78670
H         -0.03150        1.99290        0.76380
H         -0.04210       -1.51100        1.31490
H          0.89110       -2.50820       -0.46150
H         -0.88620       -2.50950       -0.50450
H         -0.81590       -2.24500       -2.99610
H          0.94100       -2.24360       -2.95360
H          0.05570       -6.36730       -2.58300
