20
gdb 6631	6.07477	0.67295	0.63485	1.525	80.91	-0.2374	0.0649	0.3023	1804.8031	0.173973	-348.98954	-348.978981	-348.978036	-349.028872	36.124
C          0.02150        1.50910       -0.00270
C          0.02220        0.05260       -0.00880
C          0.03700       -1.15170       -0.01410
C          0.01950       -2.61000       -0.02160
C         -1.40320       -3.19880        0.04460
C         -1.41190       -4.73010       -0.03200
C         -2.82190       -5.30830        0.08640
O         -0.75950       -5.19780       -1.21290
H          1.04170        1.90820       -0.03390
H         -0.51590        1.91300       -0.86820
H         -0.45960        1.90630        0.89820
H          0.51240       -2.99360       -0.92230
H          0.60580       -2.99210        0.82540
H         -1.89350       -2.87510        0.97000
H         -2.00260       -2.79210       -0.78150
H         -0.79530       -5.12680        0.78530
H         -3.46760       -4.92410       -0.71360
H         -2.79260       -6.39840        0.00780
H         -3.28310       -5.03950        1.04210
H         -1.29540       -4.92630       -1.96700
