16
gdb 19233	3.0016	2.11405	1.58223	3.912	67.9	-0.256	0.0077	0.2637	845.1259	0.131158	-342.751413	-342.744038	-342.743094	-342.782957	27.496
C         -0.11860        1.60680       -0.09840
C          0.05700        0.09650       -0.04670
C          0.75470       -0.62830       -1.19820
C          2.19830       -0.33810       -1.25880
N          1.73930       -1.34190       -0.27630
C          1.14640       -0.56100        0.87710
C          2.06970        0.32030        1.58130
N          2.79420        1.04030        2.12370
H          0.82480        2.12370       -0.29210
H         -0.82350        1.87760       -0.89140
H         -0.51600        1.98620        0.84830
H         -0.90220       -0.37970        0.17220
H          0.24110       -1.16850       -1.98670
H          2.76110       -0.79170       -2.06820
H          2.60090        0.60700       -0.90450
H          0.71680       -1.26380        1.59370
