18
gdb 8140	4.21344	1.63489	1.35179	1.95	73.72	-0.2315	0.0113	0.2428	971.3151	0.152871	-347.810504	-347.802719	-347.801775	-347.842095	29.962
C          0.05890        1.50990        0.08050
C         -0.03220        0.01980        0.00440
C         -0.17370       -0.73370       -1.09230
C         -0.12950       -2.19390       -0.76270
C         -0.79390       -3.22910       -1.62460
O          1.14310       -2.58000       -0.17010
C          0.05170       -2.26630        0.69940
C          0.07780       -0.84770        1.25110
H          1.03210        1.82570        0.47760
H         -0.07130        1.97250       -0.90160
H         -0.70080        1.92110        0.75760
H         -0.27280       -0.35790       -2.10460
H         -0.33100       -3.26260       -2.61730
H         -0.70100       -4.22050       -1.17470
H         -1.85650       -2.99990       -1.75870
H         -0.31450       -3.09190        1.30560
H          0.99890       -0.64450        1.81160
H         -0.75900       -0.67120        1.94060
