19
gdb 15407	4.55089	0.93973	0.83056	3.0036	75.14	-0.2393	-0.0292	0.2101	1399.1681	0.163585	-365.042499	-365.03349	-365.032546	-365.076819	31.876
C          0.25950        1.54920        0.17160
C          0.04740        0.03470        0.23480
C         -1.35360       -0.37900       -0.21940
N         -1.47680       -1.83840       -0.17620
C         -2.09780       -2.44620        0.97020
C         -2.77590       -2.49920       -0.37550
C         -4.04290       -1.74290       -0.54650
O         -4.96740       -2.14000       -1.21330
H          1.26660        1.81980        0.50180
H          0.13200        1.92650       -0.84910
H         -0.45350        2.08080        0.81170
H          0.78260       -0.48180       -0.39190
H          0.20940       -0.32260        1.25950
H         -2.10180        0.13600        0.40470
H         -1.51960       -0.05900       -1.25510
H         -1.64270       -3.35230        1.36090
H         -2.54420       -1.79330        1.72190
H         -2.73480       -3.41680       -0.95680
H         -4.10070       -0.77440       -0.00360
