15
gdb 180	6.7828	2.18539	1.85356	0.6759	56.46	-0.239	0.0173	0.2562	699.8479	0.129195	-287.662612	-287.654946	-287.654001	-287.694375	26.442
C         -0.02710        1.52210        0.05210
C          0.03240       -0.01250       -0.03040
C          0.72830       -0.50930       -1.27110
C          0.11970       -0.26180       -2.62640
N          1.83260       -1.12830       -1.09130
O          2.40560       -1.53110       -2.31250
H          0.98030        1.94810        0.08270
H         -0.54840        1.95410       -0.80820
H         -0.55800        1.83840        0.95500
H          0.55620       -0.41490        0.84080
H         -0.99010       -0.41390       -0.01370
H          0.73400        0.43560       -3.20640
H          0.08490       -1.19290       -3.19960
H         -0.88850        0.14910       -2.54290
H          3.19710       -1.99350       -2.01820
