15
gdb 18139	3.3983	1.94971	1.547	4.3023	64.75	-0.2618	-0.003	0.2588	840.4784	0.118691	-362.625468	-362.618246	-362.617301	-362.656923	26.75
C         -0.07130        1.53630       -0.10800
C          0.04890        0.03610        0.04110
C          1.31220       -0.73380       -0.16000
O          2.45690        0.01220        0.29520
C          1.97840       -0.06900        1.65870
C          1.95940        1.21160        2.37410
N          1.94840        2.19920        2.97400
C          0.66560       -0.71490        1.21270
H          0.88140        2.03400        0.07970
H         -0.38150        1.78550       -1.12790
H         -0.81420        1.94680        0.58220
H         -0.81130       -0.52400       -0.32370
H          1.49560       -1.52460       -0.87730
H          2.60170       -0.76990        2.22700
H          0.15000       -1.48460        1.76950
