16
gdb 12742	2.63233	2.21349	1.82361	1.0044	59.6	-0.2458	0.0593	0.305	805.9634	0.129345	-420.82857	-420.820858	-420.819914	-420.861062	28.711
O          0.34500        1.17420       -0.56040
C          0.05550       -0.09390       -0.02980
C          0.16190       -0.33380        1.51260
C         -1.30050       -0.82430        1.52650
O         -2.21580        0.26650        1.77960
C         -2.47100        0.46280        0.36780
C         -1.42400       -0.60020       -0.00900
O         -1.78240       -1.61450       -0.89430
H         -0.02500        1.84070        0.02820
H          0.66840       -0.80450       -0.59310
H          0.90990       -1.08040        1.78990
H          0.31500        0.56680        2.11300
H         -1.56860       -1.74260        2.05160
H         -3.48870        0.16130        0.09160
H         -2.29720        1.49740        0.04490
H         -1.51430       -1.35130       -1.78200
