18
gdb 7855	4.55101	1.13969	1.00838	3.7315	69.27	-0.2302	0.0417	0.2719	1183.6485	0.153142	-381.12773	-381.118877	-381.117933	-381.161754	32.003
C          0.09900        1.24010       -0.56050
C         -0.25260        0.04810        0.30160
C          0.65820       -1.12580        0.41720
N          0.43420       -0.24550        1.56380
C          1.53780        0.59710        2.00830
C          2.21280        0.06190        3.28000
N          1.46910       -0.84180        3.96430
O          3.30660        0.46290        3.62810
H          1.17810        1.37070       -0.67060
H         -0.32470        1.11040       -1.56170
H         -0.31560        2.16480       -0.14450
H         -1.32280       -0.14620        0.36270
H          0.26630       -2.13580        0.50290
H          1.62150       -1.05520       -0.08660
H          2.33600        0.73710        1.26780
H          1.14830        1.59230        2.25540
H          0.57610       -1.12170        3.59190
H          1.82740       -1.22620        4.82170
