15
gdb 8265	6.34404	0.91463	0.90114	4.0643	71.67	-0.2456	0.0279	0.2734	1299.5062	0.117669	-362.661046	-362.652522	-362.651578	-362.696458	29.092
C         -0.01190        1.51850       -0.01450
C         -0.01870        0.06320       -0.02150
C         -0.02460       -1.14120       -0.02150
C         -0.03120       -2.59500       -0.03640
C          0.41330       -3.32670        1.27870
C         -1.03280       -3.87590        1.33010
O         -1.66630       -4.57720        2.06970
N         -1.34580       -3.23660        0.15340
H          0.73440        1.90750        0.68670
H          0.22070        1.92110       -1.00630
H         -0.98740        1.91580        0.28620
H          0.48550       -2.96780       -0.92820
H          1.18870       -4.08350        1.15240
H          0.66640       -2.65980        2.10290
H         -2.22610       -3.09220       -0.31930
