15
gdb 2774	4.94087	2.02076	1.54015	0.8448	60.2	-0.2412	0.0239	0.2651	807.3154	0.125535	-341.818686	-341.811117	-341.810173	-341.850638	26.145
C          0.06450        1.35820       -0.05310
N          0.23870       -0.08820       -0.07270
C          0.59780       -0.67740        0.96920
O          0.87650       -0.18910        2.24030
C          1.00400       -1.54010        2.77740
C          0.82540       -2.13700        1.36150
N         -0.20650       -3.13520        1.18450
H          0.83110        1.82290       -0.68370
H         -0.90580        1.60650       -0.49580
H          0.12270        1.80090        0.94810
H          1.96940       -1.68420        3.26740
H          0.18710       -1.76970        3.46790
H          1.76280       -2.52420        0.95230
H         -1.12010       -2.72900        1.36830
H         -0.22490       -3.43890        0.21580
