14
gdb 4858	5.09612	1.47824	1.20316	2.1879	61.	-0.1969	0.0336	0.2305	967.648	0.107837	-415.878028	-415.870444	-415.869499	-415.910286	27.079
C         -0.17190        1.35390       -0.08020
O          0.61140        0.16630        0.10250
C          0.82610       -0.54990       -1.00080
C          0.55020       -1.81450       -1.37570
N          1.13550       -2.06990       -2.62160
C          1.70420       -0.94990       -2.93200
N          2.34180       -0.61740       -4.10560
O          1.58260        0.03820       -2.01200
H          0.33780        2.05960       -0.74370
H         -1.15500        1.10450       -0.49570
H         -0.28820        1.79800        0.90930
H         -0.00940       -2.56200       -0.83860
H          2.58360       -1.43650       -4.64520
H          3.11890        0.01840       -3.99200
