23
gdb 15183	8.37249	0.6348	0.61998	1.0044	83.73	-0.2292	0.09	0.3192	1887.9855	0.211189	-330.304547	-330.294783	-330.293839	-330.340021	34.879
C          0.00450        1.52130       -0.11110
C          0.14620       -0.00210       -0.05920
C          0.66150       -0.51530        1.28990
C          0.81210       -2.03860        1.34200
C          1.32120       -2.54450        2.69140
N          1.42480       -4.00050        2.70210
C          2.69730       -4.55860        2.25650
C          2.31960       -4.57860        3.69670
H          0.96620        2.01480        0.06890
H         -0.36360        1.85650       -1.08590
H         -0.69680        1.88040        0.65060
H         -0.82350       -0.46920       -0.27630
H          0.82590       -0.33470       -0.85500
H          1.62920       -0.04250        1.51030
H         -0.02160       -0.18700        2.08620
H         -0.14970       -2.52050        1.12850
H          1.50210       -2.36740        0.55330
H          2.28940       -2.06320        2.92980
H          0.62070       -2.25540        3.48530
H          2.63840       -5.46090        1.65460
H          3.48320       -3.86400        1.96110
H          2.85590       -3.89980        4.35870
H          1.97720       -5.49600        4.16740
