21
gdb 5885	4.08801	0.98005	0.96285	2.6755	80.05	-0.2438	0.0268	0.2706	1362.0164	0.184984	-366.26608	-366.255729	-366.254785	-366.301573	36.826
C          0.14760        1.28540        0.26470
O         -0.12480        0.09930       -0.46820
C         -1.18920       -0.61750       -0.03740
N         -1.50510       -1.68090       -0.62470
C         -2.64900       -2.49310       -0.19710
C         -3.58870       -2.58940       -1.41430
C         -2.08770       -3.89020        0.13030
C         -3.43190       -1.95650        1.01550
H          1.02190        1.74180       -0.20140
H         -0.69080        1.99190        0.21830
H          0.37630        1.06860        1.31580
H         -1.69680       -0.17360        0.82870
H         -3.04080       -2.95780       -2.28540
H         -4.42300       -3.26840       -1.20920
H         -3.99890       -1.60580       -1.66440
H         -1.41570       -3.84400        0.99320
H         -2.89720       -4.59050        0.36120
H         -1.51940       -4.27670       -0.71950
H         -3.86070       -0.96810        0.81790
H         -4.25990       -2.63180        1.25090
H         -2.80130       -1.88700        1.90850
