19
gdb 4166	2.42511	1.68961	1.0959	0.8239	75.58	-0.2298	0.0184	0.2482	1127.4889	0.164357	-365.014603	-365.005687	-365.004743	-365.04839	32.849
C         -0.27560        1.47660       -0.20050
C          0.25000        0.04050       -0.16880
C          0.83550       -0.46280       -1.46970
N          0.69600        0.30450       -2.48610
O          1.26070       -0.23070       -3.65930
C          1.51050       -1.78470       -1.52060
C          2.60910       -2.14650       -0.53130
C          1.28870       -2.85130       -0.46650
H          0.51760        2.18080       -0.46410
H         -1.06920        1.58910       -0.94230
H         -0.67350        1.75220        0.78080
H          1.00950       -0.05600        0.61940
H         -0.55890       -0.64150        0.12730
H          1.04360        0.44690       -4.30720
H          1.66790       -2.14290       -2.52870
H          3.47020       -2.67510       -0.92390
H          2.84420       -1.43290        0.25030
H          0.63480       -2.62620        0.36770
H          1.22840       -3.87740       -0.81170
