15
gdb 9480	3.06976	1.6794	1.57316	3.7053	61.66	-0.2762	0.0046	0.2808	883.6961	0.117255	-399.78856	-399.780359	-399.779415	-399.821392	29.297
C          0.18250        1.42860       -0.07320
C          0.02830       -0.08220        0.02000
O          0.81250       -0.77840       -0.97600
C          1.65830       -1.39600        0.02090
C          0.83730       -0.80130        1.17200
O          1.59670        0.00470        2.02390
C         -1.38240       -0.48860       -0.04430
N         -2.49070       -0.81750       -0.05210
H          1.22820        1.69810        0.08240
H         -0.13900        1.76870       -1.06080
H         -0.42840        1.93000        0.68340
H          1.66330       -2.48690       -0.06290
H          2.68400       -1.01290       -0.01410
H          0.23070       -1.52870        1.72010
H          1.06590        0.23950        2.79170
