15
gdb 2906	6.64514	1.78669	1.50926	2.988	63.37	-0.2421	-0.0253	0.2167	798.2111	0.125598	-308.540101	-308.533481	-308.532536	-308.571329	23.742
O         -0.02300       -0.07940        0.09800
C          0.05340        1.11800        0.01110
C          1.34140        1.91950        0.02030
C          1.42000        2.90480       -1.18320
C          1.96310        4.24140       -0.61390
C          1.74470        4.09510        0.87060
C          1.41700        2.85200        1.21720
H         -0.86210        1.75150       -0.07850
H          2.16670        1.19720        0.03090
H          2.02760        2.50460       -1.99720
H          0.41210        3.06430       -1.58400
H          3.03060        4.37870       -0.83410
H          1.45000        5.11210       -1.03720
H          1.89280        4.91330        1.56710
H          1.25480        2.49970        2.22960
