14
gdb 1309	3.5428	2.65711	2.21803	2.5062	54.09	-0.2424	0.026	0.2684	663.4271	0.112415	-361.733362	-361.725984	-361.72504	-361.764477	26.451
C         -0.05680        1.59310       -0.00980
C         -0.04250        0.07290       -0.02140
O         -1.33200       -0.48030        0.14740
C          0.71990       -0.61900       -1.19350
N          1.68660       -1.09670       -0.19450
C          1.02320       -0.60240        0.89680
O          1.18080       -0.69630        2.08610
H          0.93840        2.00240       -0.20930
H         -0.75390        1.96820       -0.76500
H         -0.38000        1.95720        0.97100
H         -1.54980       -0.41480        1.08490
H          0.13220       -1.40960       -1.66700
H          1.14720        0.04770       -1.94800
H          2.44710       -1.75700       -0.26490
