15
gdb 2837	3.61538	2.41798	1.64325	1.1902	64.	-0.231	0.0483	0.2793	774.5542	0.123048	-308.455419	-308.447861	-308.446917	-308.486877	27.449
C          0.15760        0.99430        0.39110
O         -0.19000        0.01970       -0.57850
C         -1.38600       -0.61460       -0.30400
C         -1.56760       -1.97460       -0.87530
C         -1.41100       -1.82200        0.64030
C         -0.21370       -2.26870        1.28390
C          0.78170       -2.64570        1.84540
H          1.09930        1.44220        0.06670
H         -0.60800        1.78200        0.45750
H          0.29230        0.54260        1.38150
H         -2.25270        0.04700       -0.24640
H         -2.53950       -2.26200       -1.25900
H         -0.71530       -2.38760       -1.40110
H         -2.31910       -1.93880        1.22560
H          1.66300       -2.98170        2.33220
