12
gdb 15460	3.80646	1.85676	1.25779	7.1461	63.69	-0.2697	-0.0728	0.197	877.3307	0.085396	-377.58247	-377.575682	-377.574738	-377.613715	24.311
O         -0.01250       -0.04890        0.00340
C         -0.00280        1.15750        0.00990
N         -1.08580        2.00540        0.02800
C         -0.73590        3.40420        0.03140
C          0.76550        3.35980        0.01250
C          1.19000        2.08860        0.00020
C          2.52860        1.62120       -0.01900
N          3.62010        1.23750       -0.03460
H         -2.02740        1.65230        0.03790
H         -1.12700        3.94110       -0.84540
H         -1.10500        3.93130        0.92350
H          1.37910        4.25010        0.00980
