11
gdb 11632	3.57925	1.93255	1.5322	4.5714	57.79	-0.2866	-0.0462	0.2404	791.0353	0.071175	-397.3414	-397.334973	-397.334029	-397.37217	23.364
O         -0.06960       -0.05800       -0.08430
C         -0.05170        1.11360        0.03700
C         -0.93020        2.39130        0.04760
C         -0.01850        2.96920        1.15610
C          0.93050        2.35750        0.09330
O          0.03750        2.90580       -0.95970
C          2.35100        2.47810       -0.04910
N          3.50260        2.53510       -0.13150
H         -1.98740        2.54700       -0.14470
H          0.00600        4.05930        1.15840
H         -0.04010        2.52490        2.15310
