16
gdb 20823	3.36339	1.81402	1.2773	1.8825	66.61	-0.2146	0.031	0.2456	951.5959	0.13194	-379.951401	-379.943568	-379.942624	-379.983821	28.859
C         -0.03430        1.56390        0.13560
C         -0.11460        0.03630       -0.02770
C          0.61670       -0.47010       -1.23440
C          0.11510       -1.02480       -2.39550
N          1.16710       -1.31260       -3.19710
N          2.35810       -0.98130       -2.63670
C          2.01630       -0.47680       -1.46200
O          2.93960       -0.02250       -0.58390
H          1.00750        1.88730        0.21440
H         -0.48040        2.07340       -0.72440
H         -0.56230        1.88940        1.03780
H          0.29560       -0.43730        0.87300
H         -1.16400       -0.27430       -0.08620
H         -0.90070       -1.23240       -2.69580
H          1.15860       -1.73120       -4.10960
H          3.80520       -0.15000       -0.99170
