17
gdb 17442	4.05368	1.77465	1.67486	1.2259	68.02	-0.2181	0.0627	0.2808	850.6129	0.141554	-363.765834	-363.758512	-363.757568	-363.79683	28.97
C          0.09580        1.49210        0.05940
C         -0.12100        0.01080       -0.02370
C         -0.99630       -0.76310        0.88200
N          0.48390       -0.93110        0.98060
C          1.01380       -1.75290       -0.16650
C          0.10570       -2.23530       -1.26460
O         -1.19140       -2.76100       -1.17970
C          0.44140       -0.78530       -1.22310
H          1.12300        1.75560       -0.21690
H         -0.58350        2.02280       -0.61850
H         -0.08460        1.85000        1.07690
H         -1.37630       -0.22730        1.74850
H         -1.61790       -1.56460        0.51380
H          2.01680       -2.14480       -0.04130
H          0.70830       -2.73080       -2.03180
H         -1.12130       -3.64760       -0.80780
H          0.93840       -0.28520       -2.04550
