14
gdb 17875	3.48064	2.16966	2.02912	3.2227	56.96	-0.2309	-0.0335	0.1974	723.3151	0.108242	-419.648863	-419.642665	-419.64172	-419.679128	23.785
O          0.00220        0.02000        0.06410
C         -0.01450        1.21040        0.01250
C         -1.09800        2.32890        0.06090
C         -0.02920        3.14320        0.84990
C          1.03960        2.35760        0.03240
O          1.12650        2.84830       -1.31240
C         -0.06810        3.48250       -1.72590
O         -1.23390        2.81660       -1.28090
H         -2.09510        2.14960        0.46250
H         -0.04470        4.23070        0.78170
H         -0.01120        2.84050        1.89970
H          2.05140        2.20520        0.40730
H         -0.07740        4.52480       -1.37570
H         -0.08250        3.46500       -2.81790
