17
gdb 3134	5.35599	1.96951	1.73741	1.5121	64.04	-0.249	0.0773	0.3263	773.5388	0.149084	-309.684377	-309.677443	-309.676499	-309.715185	26.304
O          0.17470        1.36310        0.16230
C          0.06850       -0.02380       -0.14040
C         -1.34670       -0.51480       -0.11580
C         -2.02900       -0.94510        1.16120
C         -1.89780       -1.93710        0.03820
C         -2.96240       -1.66340       -1.03080
C         -2.41300       -0.20590       -1.17950
H         -0.27760        1.50330        1.00100
H          0.49710       -0.13280       -1.14340
H          0.68230       -0.63290        0.54440
H         -1.36970       -1.11620        2.00760
H         -3.00560       -0.54690        1.42990
H         -1.35260       -2.86510        0.16680
H         -2.82210       -2.25280       -1.93950
H         -4.00230       -1.77060       -0.70470
H         -3.10240        0.61170       -0.94700
H         -1.98100       -0.02310       -2.16650
