12
gdb 21474	8.09442	1.24383	1.08022	2.0192	59.39	-0.2663	-0.0257	0.2407	1001.563	0.084348	-414.641774	-414.635074	-414.63413	-414.67379	23.316
N         -0.12010        1.29890        0.12280
C         -0.02300        0.05580       -0.02830
O         -1.16790       -0.69310        0.09770
C         -1.06860       -2.03810        0.06730
N          0.06920       -2.68870        0.13040
O         -0.28980       -4.03430        0.07270
C         -1.62470       -4.12760       -0.01210
C         -2.19660       -2.89960       -0.02130
H          0.78840        1.73730       -0.01760
H          0.85900       -0.54150       -0.26390
H         -2.02150       -5.12990       -0.05930
H         -3.23580       -2.62780       -0.08200
