17
gdb 14139	4.26546	1.62365	1.42332	1.4905	69.56	-0.2268	0.0231	0.2499	920.7621	0.14301	-363.866516	-363.859148	-363.858204	-363.898236	27.636
C         -0.12810        1.50090        0.03910
C          0.00450       -0.00470        0.06870
C          1.31640       -0.67800       -0.26450
C          0.79460       -0.70490        1.14870
C          1.47570        0.01020        2.32370
O          1.27300       -0.90220        3.43070
C          0.59420       -1.95440        2.90840
N          0.28400       -1.95470        1.67930
H          0.79870        1.99690        0.34770
H         -0.36090        1.85060       -0.97240
H         -0.92800        1.84840        0.70260
H         -0.88360       -0.54910       -0.23930
H          1.29800       -1.61090       -0.81590
H          2.17450       -0.04230       -0.46630
H          2.55290        0.15180        2.19040
H          1.01980        0.97050        2.58490
H          0.36440       -2.73830        3.62040
