13
gdb 20395	5.00088	2.13585	1.52814	5.8562	59.2	-0.2167	-0.0063	0.2104	762.2604	0.099044	-394.759431	-394.753524	-394.75258	-394.789735	21.935
C          0.04460        1.35780       -0.15490
C          1.49710        1.89370        0.15420
C          2.11350        0.60540        0.58670
C          1.16030       -0.36090        0.71220
O         -0.10150        0.01720        0.39760
N          1.67640       -1.51430        1.16650
N          2.96720       -1.30650        1.34290
N          3.23580       -0.02070        1.00170
H         -0.73690        1.98150        0.28230
H         -0.11490        1.29080       -1.23570
H          1.94280        2.34760       -0.73590
H          1.49490        2.65190        0.94650
H          4.18680        0.30350        1.06700
