14
gdb 5037	3.53333	2.40074	1.44224	5.6132	66.91	-0.2335	-0.0535	0.18	814.8629	0.109378	-378.786153	-378.77942	-378.778476	-378.817206	24.775
C         -0.03140        1.45430        0.00020
N         -0.04650       -0.00460        0.00660
C         -1.18650       -0.70870       -0.15260
C         -1.16750       -2.07250       -0.14160
C          0.10040       -2.67590        0.04410
N          1.22370       -2.02840        0.20130
C          1.22210       -0.64710        0.19250
O          2.20510        0.05060        0.32910
H          0.62040        1.81450       -0.79880
H         -1.04760        1.82330       -0.14770
H          0.37050        1.82490        0.94570
H         -2.09380       -0.12880       -0.28630
H         -2.07060       -2.65200       -0.26760
H          0.16960       -3.76430        0.06080
