13
gdb 15651	3.60916	1.79875	1.27006	2.2926	54.37	-0.2785	-0.0378	0.2407	885.7607	0.096183	-435.77468	-435.767749	-435.766805	-435.806326	24.758
O          0.09550        1.41410       -0.02640
C          0.08900        0.01220        0.06310
C         -1.35220       -0.53040        0.03660
N         -2.00760       -0.19410       -1.23160
C         -2.36670       -1.30340       -1.72760
O         -2.09810       -2.45580       -1.03590
C         -1.42780       -2.04870        0.12660
O         -1.03020       -2.81960        0.93900
H         -0.40400        1.64730       -0.81840
H          0.66320       -0.45930       -0.74990
H          0.55790       -0.26260        1.01190
H         -1.90110       -0.07850        0.87060
H         -2.87660       -1.45290       -2.67170
