17
gdb 19371	4.16379	1.63115	1.4527	1.4699	67.54	-0.2104	0.0702	0.2806	902.1528	0.142537	-363.764927	-363.757754	-363.75681	-363.796277	28.18
O          0.16060        1.36940        0.13270
C          0.04850       -0.03500       -0.06960
C         -1.37100       -0.50670       -0.06170
C         -2.11440       -0.94680        1.17920
C         -1.92320       -1.92380        0.04770
C         -2.86420       -1.62560       -1.15660
N         -3.74380       -0.48040       -0.80730
C         -2.34640       -0.24860       -1.25340
H         -0.33520        1.57990        0.93120
H          0.51520       -0.22220       -1.04420
H          0.62520       -0.60040        0.68080
H         -1.47690       -1.13490        2.03880
H         -3.09820       -0.55620        1.40420
H         -1.36960       -2.84770        0.15570
H         -3.13960       -2.33050       -1.92990
H         -4.34450       -0.31090       -1.61360
H         -2.12070        0.36730       -2.11420
