16
gdb 12577	3.10803	2.0447	1.26224	4.9768	68.66	-0.2624	-0.03	0.2324	943.3596	0.129806	-383.809397	-383.801304	-383.800359	-383.842098	28.666
C          0.09330        1.50000       -0.19760
C         -0.02100        0.01870       -0.06190
C         -1.10360       -0.75870        0.07410
C         -2.55810       -0.43170        0.13780
C         -0.65340       -2.17120        0.16810
O         -1.31080       -3.16660        0.29610
O          0.71710       -2.19610        0.08350
C          1.19880       -0.86540       -0.06250
H          0.70120        1.92260        0.61190
H          0.59020        1.77090       -1.13730
H         -0.88350        1.98760       -0.17800
H         -2.74410        0.64170        0.05730
H         -3.10080       -0.94090       -0.66570
H         -2.99070       -0.79100        1.07760
H          1.77050       -0.78920       -0.99710
H          1.88220       -0.63630        0.76620
