18
gdb 13076	4.42189	1.27126	1.06935	4.6231	72.62	-0.2301	0.0269	0.257	1110.8735	0.153841	-343.972868	-343.964574	-343.96363	-344.005958	30.037
C         -0.11430        1.59820       -0.17810
C          0.00720        0.08040       -0.04380
C          1.16950       -0.54230       -0.86730
C          1.95030       -0.63870        0.46560
N          0.67610       -0.44020        1.18040
C          0.64610        0.30480        2.41810
C          1.27480       -0.45810        3.50500
N          1.78810       -1.04600        4.35650
H          0.85460        2.09830       -0.07370
H         -0.51270        1.84750       -1.16710
H         -0.79880        2.01930        0.56610
H         -0.97830       -0.37630       -0.19540
H          0.92230       -1.51730       -1.28910
H          1.60050        0.09200       -1.64320
H          2.45780       -1.57950        0.69800
H          2.66750        0.18700        0.60100
H          1.15170        1.28780        2.37020
H         -0.39700        0.49680        2.69690
