16
gdb 17982	3.92737	1.79161	1.54041	1.7895	69.74	-0.2457	0.0196	0.2653	861.8157	0.130223	-346.530614	-346.523525	-346.52258	-346.562169	27.142
C         -0.40920       -1.17280       -0.65460
C         -0.22630       -0.03720       -0.30390
C         -0.00270        1.33850        0.10520
O         -0.02540        1.54340        1.54540
C          1.24830        2.22690        1.52050
C          2.43360        1.29690        1.85820
C          2.58190        0.95810        0.33920
C          1.42590        1.93690        0.00430
H         -0.57810       -2.17570       -0.96110
H         -0.75170        1.98600       -0.37180
H          1.19140        3.21630        1.98130
H          3.29750        1.82310        2.27360
H          2.16600        0.47070        2.51970
H          3.53920        1.26910       -0.08410
H          2.39890       -0.08060        0.05610
H          1.58530        2.68750       -0.76800
