14
gdb 21089	3.51568	2.41764	1.44537	0.1078	68.98	-0.2214	-0.0722	0.1492	813.0902	0.109425	-374.904515	-374.897752	-374.896807	-374.935502	24.988
C         -0.31260        1.36520       -0.00920
N          0.04220       -0.04540       -0.00110
N          0.27920       -0.61970       -1.18660
C          0.59680       -1.87930       -1.18940
N          0.71390       -2.68670       -0.08070
C          0.48290       -2.12090        1.05610
C          0.11580       -0.71530        1.22260
N         -0.13030       -0.07380        2.30800
H          0.41040        1.93280        0.58340
H         -0.31530        1.69560       -1.04620
H         -1.29500        1.50300        0.45110
H          0.78530       -2.32900       -2.15580
H          0.56330       -2.72050        1.96300
H         -0.03620       -0.69520        3.11040
