21
gdb 6544	2.66934	1.85441	1.61641	2.7424	73.82	-0.2318	0.0592	0.291	953.1646	0.186556	-366.246793	-366.237271	-366.236327	-366.280058	36.455
C         -0.28210        1.48160       -0.13980
C          0.02880       -0.01850       -0.01270
C          0.81870       -0.31040        1.27200
O         -1.20940       -0.74470        0.02200
C          0.77750       -0.53710       -1.25530
C          2.08740        0.14870       -1.59290
C          0.61020       -1.96480       -1.62890
N         -0.02310       -0.89970       -2.43780
H          0.62520        2.09080       -0.12350
H         -0.82100        1.68440       -1.06950
H         -0.90810        1.80770        0.69940
H          0.25140        0.02090        2.15000
H          1.00380       -1.38340        1.36760
H          1.77890        0.21270        1.28760
H         -1.73360       -0.39580        0.74910
H          2.82240        0.04580       -0.78800
H          2.50670       -0.30010       -2.49620
H          1.94690        1.21540       -1.79380
H          1.42850       -2.48710       -2.11800
H         -0.03530       -2.58420       -1.01610
H         -1.00620       -0.86510       -2.17540
