17
gdb 15665	3.18752	1.81684	1.27425	0.2588	63.91	-0.2496	0.0156	0.2652	953.3929	0.142978	-401.010534	-401.002648	-401.001704	-401.043278	28.821
C         -0.03030        1.54250       -0.18920
C          0.03690        0.03120        0.03320
N          0.69350       -0.64590       -1.10820
C          1.55400       -1.42680       -0.61020
O          1.71470       -1.49330        0.73490
C          0.83150       -0.46350        1.28330
C          1.72370        0.53710        2.01000
O          2.44860       -0.08880        3.04950
H          0.96550        1.98050       -0.29650
H         -0.58340        1.74480       -1.10950
H         -0.54570        2.04290        0.63660
H         -0.99140       -0.34710        0.08750
H          2.20600       -2.08800       -1.17090
H          0.19150       -0.96210        2.01610
H          2.39590        1.02640        1.28850
H          1.11010        1.31440        2.47590
H          2.92130       -0.82640        2.64680
