12
gdb 14597	5.45036	0.8085	0.72127	4.1476	70.29	-0.2883	-0.0644	0.2238	1433.304	0.082846	-377.492001	-377.483881	-377.482936	-377.526087	26.756
N         -0.24560        1.10860       -0.12320
C         -0.37560       -0.11970        0.11120
O         -0.44990       -0.99020       -0.92950
C         -0.66170       -2.35470       -0.59110
C         -2.04520       -2.64300       -0.22140
C         -3.18970       -2.87160        0.08750
C         -4.48260       -3.13600        0.43990
N         -5.58020       -3.36330        0.74300
H         -0.18480        1.63170        0.74770
H         -0.43050       -0.60570        1.09450
H         -0.38950       -2.92700       -1.48280
H          0.00950       -2.66990        0.22040
