17
gdb 15141	9.2115	0.72088	0.69567	3.0799	66.61	-0.2539	-0.0305	0.2233	1560.5219	0.139952	-400.958374	-400.949519	-400.948574	-400.993527	29.663
O         -0.04760        0.05880        0.33460
C          0.22770        0.97820       -0.38870
C          1.36370        1.95010       -0.11700
O          1.41920        2.86750       -1.17710
C          2.43050        3.84720       -1.02760
C          2.35480        4.80430       -2.18390
C          3.60160        5.42670       -2.69520
N          2.88720        4.42360       -3.49880
H         -0.33120        1.19820       -1.32450
H          1.18000        2.44560        0.85220
H          2.30160        1.37840       -0.01000
H          2.29680        4.38680       -0.07450
H          3.42520        3.36840       -0.99500
H          1.42610        5.36800       -2.23780
H          3.57900        6.43680       -3.09310
H          4.54080        5.15020       -2.22160
H          3.35440        3.52190       -3.43440
