14
gdb 16547	2.8908	2.4403	1.64477	3.0998	57.12	-0.2387	-0.0409	0.1978	778.7631	0.107007	-419.644029	-419.637259	-419.636315	-419.675237	25.154
O          0.05850        1.45020       -0.07490
C          0.11320        0.06280       -0.03860
C         -1.22160       -0.72230        0.04270
O         -2.20850       -0.08050       -0.79840
C         -2.00080       -1.05030       -1.85800
C         -0.79410       -1.67060       -1.11820
C          0.45130       -0.77620       -1.31720
O          1.30450       -0.73220       -2.15130
H         -0.72240        1.67010       -0.60230
H          0.79970       -0.24150        0.76400
H         -1.61750       -1.02830        1.01160
H         -2.85870       -1.72710       -1.94140
H         -1.80720       -0.58240       -2.82850
H         -0.68630       -2.75220       -1.08030
