17
gdb 1135	4.92901	1.86219	1.77689	2.9233	64.37	-0.2386	-0.0171	0.2215	792.7756	0.146177	-309.738198	-309.730638	-309.729694	-309.769847	28.491
C         -0.36280        1.59870       -0.04090
C          0.03060        0.12500        0.01430
C         -1.17670       -0.78570       -0.21700
C          1.25170       -0.27000       -0.89110
C          1.92030       -0.87930        0.34860
O          2.87320       -1.58410        0.51490
C          0.85370       -0.29480        1.28440
H          0.50280        2.24920        0.12490
H         -0.79220        1.85610       -1.01570
H         -1.11060        1.83630        0.72420
H         -1.62780       -0.59820       -1.19770
H         -0.89410       -1.84360       -0.17730
H         -1.94660       -0.61810        0.54440
H          1.06520       -0.95700       -1.72150
H          1.81370        0.58970       -1.27280
H          1.24070        0.55400        1.85930
H          0.38810       -0.99920        1.97970
