16
gdb 11889	4.78638	1.60095	1.35922	3.9575	65.38	-0.2316	0.0614	0.2929	909.4727	0.13282	-379.955475	-379.948526	-379.947582	-379.986467	27.151
O          0.02590       -0.01450       -0.17410
C         -0.00030        1.18920       -0.05790
N         -1.09430        2.02300       -0.25580
C         -0.81350        3.38000        0.18920
C          0.71490        3.40160        0.12430
C          1.47030        4.30110       -0.81910
C          1.53680        4.51540        0.68550
N          1.06150        2.01450        0.30600
H         -2.00640        1.61220       -0.13760
H         -1.26300        4.13090       -0.46760
H         -1.16220        3.56270        1.21690
H          2.35020        3.89770       -1.31040
H          0.91070        5.01220       -1.41820
H          1.02240        5.37300        1.10800
H          2.45930        4.25710        1.19480
H          1.98890        1.67810        0.09920
