15
gdb 19599	4.39333	2.02894	1.88469	2.6559	59.11	-0.2425	0.0699	0.3124	737.129	0.1211	-399.716921	-399.711187	-399.710243	-399.746404	24.156
O          0.13240        1.40410       -0.08890
C          0.12030        0.00690       -0.10100
C          0.16700       -0.64060        1.31440
O         -1.25710       -0.24760        1.44570
C         -1.30230       -0.61670        0.00990
C         -1.07080       -2.13450        0.08400
N          0.28670       -2.56080       -0.33560
C          0.03830       -2.15260        1.06880
H         -0.48290        1.66790        0.60900
H          0.80080       -0.33810       -0.87380
H          0.79900       -0.27080        2.12100
H         -2.17110       -0.22230       -0.51600
H         -1.89490       -2.83720        0.08520
H          0.30640       -3.57860       -0.37650
H          0.12170       -2.87010        1.87570
