16
gdb 11976	2.64687	2.29961	1.76708	2.7793	64.48	-0.2398	-0.0288	0.211	821.5632	0.128139	-383.718579	-383.710743	-383.709799	-383.750341	29.127
C         -0.03420        1.56490       -0.09140
C         -0.00450        0.04160       -0.03710
C         -1.37220       -0.56800        0.28640
C          0.72870       -0.67680       -1.19600
O          2.06470       -0.19670       -1.20530
C          1.75030       -1.28880       -0.30890
C          1.08090       -0.62100        0.88790
O          1.20620       -0.69560        2.07350
H          0.93440        1.96160       -0.40320
H         -0.79910        1.91670       -0.79280
H         -0.27180        1.97300        0.89620
H         -2.11730       -0.25180       -0.45150
H         -1.34130       -1.66300        0.29040
H         -1.70740       -0.23950        1.27420
H          0.32060       -1.07810       -2.11670
H          2.33720       -2.19520       -0.39870
