15
gdb 11180	3.64127	1.57917	1.43533	2.5975	66.15	-0.2428	-0.0217	0.2212	906.4205	0.118777	-362.643539	-362.636137	-362.635193	-362.67547	27.761
O         -0.00850        0.04590       -0.30540
C         -0.01710        1.22380       -0.07070
C         -1.25810        2.09130        0.15630
N         -0.71140        3.35300        0.65480
C          0.60040        3.55690       -0.00240
C          1.20470        2.13920        0.04730
C          0.49400        4.06390       -1.37750
C          0.35940        4.48270       -2.49720
H         -1.78860        2.16660       -0.80810
H         -1.93510        1.62360        0.87720
H         -1.32980        4.13680        0.48270
H          1.18760        4.26430        0.59210
H          1.66670        1.96270        1.02500
H          1.94110        1.93080       -0.72860
H          0.25270        4.85530       -3.48620
