15
gdb 9464	2.72964	1.80785	1.73074	3.204	62.72	-0.2518	-0.0369	0.215	857.611	0.117398	-399.831801	-399.823597	-399.822652	-399.864678	28.701
C          0.11510        1.69280        0.21840
C         -0.03050        0.18190        0.05000
C          0.57560       -0.48440       -1.21630
N          1.49680       -1.20300       -0.32590
C          1.05590       -0.64960        0.84070
O          1.38130       -0.74530        1.99130
C         -1.42330       -0.29320        0.39910
O         -2.06900       -1.07810       -0.24770
H          1.14500        2.00720        0.02770
H         -0.54290        2.23590       -0.46780
H         -0.13820        1.98630        1.24190
H         -0.12140       -1.12810       -1.75610
H          1.07180        0.21160       -1.89920
H          2.24250       -1.85840       -0.50680
H         -1.81960        0.13920        1.34400
