16
gdb 19093	3.736	2.89678	2.86564	0.1176	66.32	-0.1975	0.062	0.2596	621.0406	0.134248	-342.665417	-342.660515	-342.659571	-342.693994	21.572
C         -0.00590        1.49640        0.04840
C          1.52350        1.47330       -0.06210
C          1.34910        0.05330       -0.66660
C          2.00570       -0.53830        0.57520
C          0.61700       -0.57900        1.26980
C          1.17190        0.50510        2.20200
N          2.20680        0.85980        1.16900
N         -0.02950       -0.00720       -0.00060
H         -0.50140        1.96740        0.90180
H         -0.46150        1.87840       -0.87180
H          2.08470        2.30990       -0.48490
H          1.44240       -0.24400       -1.71120
H          2.81400       -1.26540        0.65520
H          0.09260       -1.45730        1.65330
H          0.53590        1.31950        2.55920
H          1.68280        0.06020        3.06300
