13
gdb 14657	19.60217	0.55805	0.54628	6.4821	96.27	-0.2644	-0.0712	0.1932	1916.1851	0.094798	-324.30443	-324.296027	-324.295083	-324.337952	28.471
C         -0.04370        1.55840        0.05440
C          0.01200        0.01920       -0.01550
C          0.68790       -0.47370       -1.20310
C          1.25470       -0.87040       -2.19940
C          1.88560       -1.31240       -3.30850
C          2.45390       -1.71030       -4.30760
C          3.08880       -2.15450       -5.42380
N          3.63270       -2.53510       -6.37980
H          0.96250        1.98420        0.06490
H         -0.57900        1.96790       -0.80570
H         -0.56160        1.86930        0.96550
H          0.52230       -0.37670        0.87210
H         -1.00520       -0.39290        0.00940
