17
gdb 6447	3.89624	1.42435	1.24973	1.6853	71.62	-0.2141	0.0318	0.2459	1021.6987	0.139529	-363.79243	-363.783849	-363.782904	-363.825103	31.97
C         -0.02480        1.52670        0.05120
N         -0.01220        0.08410        0.10770
C         -1.24690       -0.61650        0.49940
C         -0.39670       -1.62800        1.31690
O         -0.19670       -2.79480        0.53970
C          0.74940       -0.57100        1.18320
C         -0.82990       -1.95030        2.66880
C         -1.15550       -2.24540        3.78830
H          0.98030        1.89790       -0.17550
H         -0.69230        1.86100       -0.75010
H         -0.35970        1.99900        0.99560
H         -1.91380       -0.02470        1.14440
H         -1.81700       -1.05690       -0.32430
H          0.34630       -3.40150        1.05510
H          1.72760       -0.96630        0.88760
H          0.85410        0.03870        2.09430
H         -1.45560       -2.49980        4.77490
