15
gdb 11369	4.40107	1.4029	1.11644	3.5403	64.01	-0.2183	-0.0065	0.2118	1020.6427	0.119334	-399.842402	-399.834843	-399.833899	-399.874568	27.867
O          0.06640        1.36330        0.37180
C          0.03930        0.00080       -0.03970
C         -1.35120       -0.54570       -0.08920
C         -1.97310       -1.26830       -1.03050
C         -3.36500       -1.58980       -0.55420
C         -3.45400       -0.87940        0.81060
O         -4.39690       -0.80180        1.56190
N         -2.20020       -0.32580        1.00950
H         -0.41280        1.87750       -0.28710
H          0.52590       -0.15320       -1.01230
H          0.62980       -0.53400        0.71380
H         -1.53760       -1.59180       -1.96410
H         -4.16130       -1.22140       -1.21100
H         -3.54700       -2.66260       -0.41710
H         -1.98490        0.30110        1.76800
