14
gdb 5337	5.70532	1.53375	1.2088	0.6398	81.2	-0.2321	-0.029	0.203	942.2448	0.109052	-308.307402	-308.300904	-308.29996	-308.337862	25.463
C          0.01840       -1.21020       -0.00410
C          0.00200       -0.00590        0.00300
C         -0.01730        1.41900        0.01090
C         -1.23650        2.11560        0.03080
C         -1.25120        3.50500        0.03850
C         -0.05520        4.22050        0.02660
C          1.15970        3.53780        0.00680
C          1.18260        2.14850       -0.00100
H          0.03320       -2.27170       -0.01060
H         -2.16400        1.55470        0.04010
H         -2.19990        4.03110        0.05390
H         -0.06990        5.30520        0.03260
H          2.09380        4.08950       -0.00260
H          2.12500        1.61310       -0.01640
