19
gdb 17556	3.14598	2.08439	1.6206	1.7496	75.8	-0.2179	0.0815	0.2995	881.968	0.165672	-327.870125	-327.862559	-327.861615	-327.901432	30.032
C         -0.05960        1.55530        0.04920
C          0.10890        0.06930       -0.00260
N         -0.82200       -0.85750        0.70290
C          0.63760       -0.91290        0.98760
C          1.26000       -1.77790       -0.11670
C          0.69840       -0.75840       -1.13840
C          0.12230       -1.00410       -2.49670
C          1.41540       -0.22930       -2.34410
H          0.84870        2.06740       -0.28530
H         -0.88650        1.88750       -0.59050
H         -0.27610        1.88880        1.07000
H         -1.24400       -0.32030        1.46230
H          1.01070       -0.75330        1.99240
H          2.35310       -1.79020       -0.08990
H          0.87630       -2.80000       -0.17830
H          0.17460       -2.01160       -2.89660
H         -0.77160       -0.45910       -2.78280
H          1.39240        0.83980       -2.53250
H          2.34290       -0.71020       -2.63930
