19
gdb 4066	6.87583	0.94057	0.86464	1.0773	76.33	-0.2392	0.0103	0.2496	1342.7661	0.16393	-365.018451	-365.009625	-365.008681	-365.052342	32.32
C          0.13870        1.42040        0.28470
C         -0.02370       -0.06950       -0.03150
C          0.62430       -0.47900       -1.34790
C          2.19320       -0.47910       -1.41500
C          2.10750       -1.88650       -1.96500
C          0.61940       -2.00160       -1.71020
N          2.99660       -2.60070       -2.51420
O          2.46040       -3.83720       -2.92970
H          1.19580        1.70030        0.35020
H         -0.31970        2.04120       -0.49310
H         -0.33230        1.67860        1.23800
H          0.40810       -0.66930        0.78160
H         -1.09100       -0.32520       -0.06440
H          0.20640        0.11420       -2.16780
H          2.67180        0.26560       -2.05560
H          2.66160       -0.43400       -0.42450
H          0.37870       -2.65240       -0.86160
H          0.01470       -2.31840       -2.56390
H          3.22410       -4.26010       -3.33630
