16
gdb 7092	5.39871	0.82346	0.72421	4.4623	73.37	-0.2549	-0.0458	0.2091	1548.4183	0.126504	-383.714219	-383.704362	-383.703418	-383.751845	31.717
C          0.03970        1.40060       -0.09330
O          0.00240       -0.00460        0.00150
C          0.61720       -0.63570       -1.07660
C          0.54390       -2.15080       -0.91650
O          0.01950       -2.69700        0.02510
C          1.16590       -2.88000       -2.00570
C          1.68310       -3.48790       -2.91110
C          2.30260       -4.23190       -3.99410
H          1.07280        1.78210       -0.11710
H         -0.48130        1.76420       -0.99320
H         -0.46360        1.79650        0.79140
H          0.14450       -0.37290       -2.04140
H          1.68280       -0.35570       -1.17410
H          2.21040       -5.31140       -3.83800
H          1.83480       -3.98610       -4.95360
H          3.36800       -3.99000       -4.07330
