15
gdb 20733	3.34651	2.0091	1.27381	2.1063	63.31	-0.207	0.0469	0.2539	913.5573	0.120276	-395.999682	-395.991728	-395.990784	-396.031664	29.296
C         -0.12250        1.47150       -0.02730
C         -0.04190       -0.02000        0.03350
N         -0.08620       -0.74730       -1.07800
N          0.01140       -2.04330       -0.65150
C          0.11380       -2.12810        0.68730
O          0.22100       -3.30120        1.33190
C          0.08480       -0.84220        1.18740
N          0.17420       -0.58360        2.58610
H          0.76960        1.94170        0.40290
H         -0.21450        1.79470       -1.06620
H         -0.98650        1.85190        0.53040
H          0.00090       -2.79410       -1.31910
H          0.27790       -3.06490        2.27080
H         -0.64400       -0.09590        2.93820
H          0.98070       -0.01210        2.81890
