14
gdb 3629	4.62883	4.40183	3.38226	1.5918	58.27	-0.2245	0.0769	0.3013	491.3825	0.116509	-287.377993	-287.373525	-287.372581	-287.405796	19.106
C         -0.00400        1.48760        0.06600
C          1.46880        1.83360       -0.05010
C          2.27420        0.70670        0.55650
C          2.12980        0.81310       -0.94890
C          1.12890       -0.37880       -0.92260
C          1.26970       -0.48250        0.55490
N          0.01940        0.02220       -0.03960
H         -0.44020        1.78170        1.02610
H         -0.60910        1.90650       -0.74450
H          1.84190        2.84970       -0.01390
H          3.14840        0.82490        1.17960
H          2.87190        1.02870       -1.70350
H          0.96460       -1.12220       -1.69180
H          1.24320       -1.32720        1.23090
