12
gdb 2896	6.36078	2.02371	1.75228	2.8689	50.17	-0.2911	0.0021	0.2932	687.7084	0.091473	-360.513163	-360.50703	-360.506086	-360.543847	21.053
N          0.03390       -1.13990       -0.14240
C          0.00880        0.01310       -0.07450
C         -0.04920        1.48030        0.02100
C         -0.61660        1.96110        1.39760
O          0.27600        2.99360        1.76660
C          1.51420        2.59710        1.24220
O          1.24430        2.06370       -0.04540
H         -0.64000        1.85990       -0.81890
H         -1.62360        2.37290        1.32170
H         -0.60810        1.13960        2.12590
H          2.16060        3.47050        1.13460
H          1.99070        1.83250        1.87960
