17
gdb 18282	3.12518	2.1678	1.90954	2.0414	67.44	-0.2444	0.0305	0.2749	797.017	0.1442	-363.859538	-363.85248	-363.851536	-363.890749	26.792
C          0.13030        1.59350        0.06420
C          0.05870        0.08550       -0.03320
C          0.61520       -0.68560       -1.22270
C          1.40430        0.00800       -2.32260
N          2.73980        0.47580       -1.96540
C          3.15790        0.33540       -0.78360
O          2.54210       -0.19300        0.30630
C          1.27680       -0.78670        0.12210
H          1.02840        1.99870       -0.40730
H         -0.73540        2.05200       -0.42510
H          0.13110        1.91520        1.11080
H         -0.84240       -0.34370        0.39850
H          0.04540       -1.55030       -1.54780
H          1.52430       -0.68900       -3.16030
H          0.85240        0.86550       -2.73010
H          4.15200        0.67630       -0.50120
H          1.21580       -1.69970        0.70330
