14
gdb 264	8.47929	1.99776	1.7207	3.5648	50.96	-0.2427	0.0598	0.3025	719.1944	0.120088	-303.795699	-303.788437	-303.787493	-303.827496	25.169
C         -0.19570        1.47610        0.12110
C          0.27380        0.04440       -0.13130
N          0.95220       -0.51950        1.02550
C          0.71340       -1.81290        1.43240
N          1.57710       -2.25080        2.43560
O         -0.15220       -2.52570        0.95940
H          0.64640        2.14000        0.34850
H         -0.70000        1.87410       -0.76500
H         -0.89230        1.51410        0.96360
H         -0.57000       -0.61780       -0.33450
H          0.92660        0.01340       -1.01570
H          1.83640       -0.10950        1.28300
H          1.90090       -1.56080        3.09780
H          1.24450       -3.09820        2.87120
