15
gdb 10474	3.35865	1.27252	1.00095	4.4186	75.87	-0.2502	0.0149	0.2652	1176.1277	0.117383	-325.505	-325.496337	-325.495393	-325.539897	29.883
C         -0.00170        1.45410        0.00430
C          0.00830       -0.00080        0.00980
C          0.02450       -1.20450        0.00970
C          0.04090       -2.64360        0.01130
C         -0.52390       -3.39480        1.22680
C         -1.29220       -3.40500       -0.05010
C          1.16340       -3.26100       -0.65910
N          2.05570       -3.76820       -1.19190
H          0.88680        1.84560       -0.50260
H         -0.88160        1.84590       -0.51740
H         -0.00780        1.85740        1.02270
H         -0.00080       -4.29530        1.52480
H         -0.87000       -2.76730        2.03870
H         -2.17600       -2.78470       -0.13200
H         -1.30400       -4.31260       -0.64130
