16
gdb 18358	3.43844	2.24475	1.65737	2.532	66.62	-0.2365	0.006	0.2425	800.5655	0.131059	-383.691229	-383.684357	-383.683413	-383.72209	26.48
O         -0.13000        1.43920        0.10640
C          0.02330        0.03830        0.02240
C          0.55750       -0.57220        1.37030
C         -0.70900       -0.70400        2.21740
C         -1.74520       -0.78670        1.39390
C         -3.12740       -0.28640        1.05800
O         -2.61030        0.16100       -0.23420
C         -1.38340       -0.60680       -0.04150
H          0.74590        1.82420        0.20930
H          0.65820       -0.24020       -0.83160
H          1.06570       -1.53080        1.19590
H          1.29530        0.09480        1.83220
H         -0.71820       -0.60960        3.29630
H         -3.90640       -1.04850        0.92540
H         -3.51650        0.53760        1.66560
H         -1.38550       -1.49170       -0.69310
