15
gdb 15394	4.1778	1.12275	0.94883	3.1347	63.05	-0.2716	-0.0071	0.2645	1193.1769	0.11694	-399.767747	-399.759335	-399.758391	-399.801595	28.499
C         -0.19830        1.35580       -0.00440
O         -0.11920       -0.05120       -0.06800
C          0.80280       -0.50220       -1.02980
C          0.79680       -2.00670       -0.99140
O         -0.12560       -2.69130       -1.83650
C          1.26440       -2.82870       -2.12680
C          1.74160       -2.21940       -3.35160
N          2.14960       -1.74990       -4.32580
H          0.77180        1.80550        0.25890
H         -0.53110        1.78760       -0.96040
H         -0.92690        1.60360        0.77020
H          0.53900       -0.15520       -2.04050
H          1.81990       -0.13520       -0.80440
H          0.89750       -2.43810        0.00440
H          1.68930       -3.81050       -1.92680
