9
gdb 772	9.71106	3.71523	2.69493	4.3899	40.64	-0.2516	-0.0343	0.2173	441.3213	0.062933	-317.364547	-317.359794	-317.35885	-317.392436	17.141
N         -0.00880        1.38040        0.16120
C          0.03770        0.00810        0.03630
N         -1.02930       -0.75110        0.00020
O         -0.55370       -2.04590       -0.03940
N          0.80420       -2.07630       -0.04250
C          1.19200       -0.83450        0.00660
H          0.72820        1.87590       -0.31850
H         -0.92010        1.77220       -0.03240
H          2.23870       -0.57290        0.02280
