10
gdb 140	17.05252	3.4088	3.26202	1.2763	45.22	-0.2422	0.0322	0.2744	408.3613	0.079399	-210.001565	-209.996559	-209.995615	-210.029132	17.704
C          0.01640       -1.18250       -0.01330
C         -0.00130        0.01990        0.02310
C         -0.01030        1.45510        0.04370
C          0.50910        2.18270        1.24130
N          1.26900        2.20510       -0.01110
H          0.02750       -2.24390       -0.04220
H         -0.80380        1.92190       -0.53400
H          0.05440        3.12890        1.52000
H          0.87160        1.58140        2.06950
H          2.03850        1.54160        0.04270
