12
gdb 8984	4.42412	1.17027	1.09021	1.5944	57.58	-0.2696	-0.0895	0.1801	1063.6184	0.080316	-418.460937	-418.452697	-418.451753	-418.494939	27.471
O         -0.63990        1.23320        0.84590
C          0.04120        1.29260       -0.13730
C          1.26590        2.20310       -0.29740
O          1.91400        2.20420       -1.31230
O          1.49570        2.93680        0.79500
C          2.63070        3.83450        0.72370
C          2.28050        5.10630        0.11120
C          2.00110        6.16470       -0.38180
H         -0.13210        0.69200       -1.05230
H          2.93740        3.97130        1.76310
H          3.43520        3.34600        0.16690
H          1.75580        7.09830       -0.82540
