13
gdb 7707	3.72247	1.95039	1.37812	3.5746	55.64	-0.282	-0.0146	0.2674	836.6061	0.096797	-435.78112	-435.774593	-435.773649	-435.812172	24.034
N         -0.10430        1.03780       -0.78420
C          0.01820        0.05960       -0.00050
C         -1.14590       -0.51970        0.76760
C         -1.09990       -2.03900        0.81930
O         -2.04080       -2.76780        0.72860
O          0.16030       -2.54690        0.97420
C          1.18950       -1.59870        1.19000
O          1.20980       -0.59130        0.20240
H          0.79550        1.28270       -1.20170
H         -1.10970       -0.15290        1.80380
H         -2.08680       -0.19070        0.33290
H          1.08620       -1.15410        2.18920
H          2.13270       -2.13720        1.11150
