20
gdb 8920	3.54245	1.30354	1.02473	4.1025	76.55	-0.2327	0.0329	0.2656	1186.2827	0.17561	-345.185468	-345.175778	-345.174834	-345.220009	34.642
C          0.01540        1.57620       -0.07390
C         -0.03940        0.05080        0.02130
N         -1.40690       -0.47960        0.03020
C         -2.11730       -0.16580       -1.20810
C         -1.44030       -1.92220        0.30870
C         -0.74860       -2.31970        1.62780
C         -2.84160       -2.37930        0.37870
N         -3.92520       -2.77430        0.44900
H          1.04080        1.91560        0.09990
H         -0.28890        1.94950       -1.05490
H         -0.63100        2.02890        0.68380
H          0.55770       -0.39420       -0.80030
H          0.44430       -0.24090        0.95530
H         -1.61780       -0.58070       -2.10440
H         -3.13280       -0.56470       -1.16660
H         -2.19310        0.91550       -1.33030
H         -0.97010       -2.50020       -0.51350
H          0.33660       -2.24380        1.54630
H         -1.09600       -1.67850        2.44170
H         -0.99340       -3.35630        1.86990
