18
gdb 17482	3.37705	2.48148	1.94305	1.4572	70.26	-0.2344	0.0945	0.3289	770.9736	0.155333	-347.783956	-347.777415	-347.776471	-347.814083	26.938
C          0.03300        1.49480        0.08780
C         -0.04480       -0.00840        0.00210
C          0.25220       -0.71020       -1.37180
C         -0.93130       -1.63700       -1.09210
C         -0.89040       -2.11550        0.35090
C          0.41960       -1.97010        1.11660
O          0.75290       -0.58210        1.03790
C         -1.41370       -0.74720        0.04480
H          1.06370        1.83250       -0.05830
H         -0.59500        1.95820       -0.67800
H         -0.30200        1.83750        1.07160
H          0.04950       -0.04370       -2.21520
H          1.25090       -1.14480       -1.48620
H         -1.52600       -2.15770       -1.83330
H         -1.58230       -2.90330        0.62480
H          0.30690       -2.24420        2.17240
H          1.22720       -2.58230        0.69090
H         -2.38990       -0.35440        0.29530
