16
gdb 18740	3.13999	2.22845	1.58966	4.1447	63.71	-0.2701	0.0073	0.2775	828.1928	0.131069	-383.755875	-383.748889	-383.747945	-383.787186	26.377
C         -0.48430        1.47650        0.06230
C          0.01450        0.04070       -0.00320
C          1.30680       -0.27730       -0.82940
C          1.94650       -0.90520        0.42360
O          2.71630        0.07810        1.18880
C          1.63370        0.37140        1.99250
O          1.59580        1.14080        2.89780
C          0.69100       -0.58490        1.27000
H          0.30490        2.16410        0.38210
H         -0.83710        1.80430       -0.92130
H         -1.31580        1.57490        0.76780
H         -0.79900       -0.61820       -0.31890
H          1.14490       -0.98100       -1.64880
H          1.85860        0.58700       -1.20620
H          2.46250       -1.86240        0.38110
H          0.12380       -1.28530        1.87960
