17
gdb 5541	3.06497	1.97966	1.29717	1.9294	71.47	-0.1897	0.0542	0.2439	957.8914	0.141955	-363.88951	-363.881014	-363.88007	-363.923032	30.236
C          0.18150        0.96950       -0.45400
O         -0.43680        0.25650        0.61770
C          0.40600       -0.52500        1.34260
C          0.77570       -1.84110        1.18190
C          0.33630       -2.75170        0.07640
C          1.63990       -2.14350        2.28100
C          1.76070       -1.01830        3.05870
N          1.01070       -0.02530        2.47380
H          0.64720        0.28190       -1.16950
H         -0.60950        1.53470       -0.95190
H          0.94560        1.66440       -0.08240
H          1.16000       -3.01530       -0.59870
H         -0.06890       -3.69200        0.46730
H         -0.44740       -2.27840       -0.52230
H          2.11490       -3.09450        2.47160
H          2.30530       -0.83950        3.97140
H          0.83810        0.89180        2.84650
