14
gdb 14828	3.6481	1.50711	1.1498	3.8603	65.4	-0.2731	-0.0007	0.2724	1012.052	0.106986	-378.721714	-378.713839	-378.712894	-378.754658	26.818
C         -0.08780        1.43680       -0.06980
N         -0.15150       -0.01550       -0.16160
C          0.59130       -0.62110       -0.95290
O          1.54840       -0.17770       -1.85250
C          1.89190       -1.53470       -2.24490
C          0.78770       -2.09720       -1.30760
C          1.20300       -2.99210       -0.24210
N          1.55340       -3.70810        0.59410
H          0.66890        1.89330       -0.71760
H         -1.06910        1.85040       -0.32440
H          0.11840        1.71400        0.96890
H          1.73100       -1.69540       -3.31250
H          2.91530       -1.78580       -1.96080
H         -0.06960       -2.51850       -1.83830
