17
gdb 19016	4.82627	1.91025	1.68482	1.9947	67.47	-0.2098	0.0731	0.283	808.6043	0.143469	-363.781466	-363.775119	-363.774175	-363.811713	25.498
C          0.02520        1.48970       -0.11560
N         -0.03300        0.04750        0.04950
C         -1.40040       -0.50510        0.24950
C         -1.17410       -1.38690        1.47050
C         -0.24780       -0.62420        2.46630
O          0.44110       -1.86260        2.84340
C          0.27530       -1.96160        1.39150
C          0.67250       -0.47750        1.19490
H          1.06800        1.80630       -0.21850
H         -0.50140        1.77690       -1.03110
H         -0.42260        2.05400        0.72390
H         -2.13300        0.28940        0.44980
H         -1.74090       -1.06260       -0.63090
H         -1.97650       -2.01210        1.85860
H         -0.50630        0.07560        3.26120
H          0.64370       -2.85380        0.88550
H          1.71150       -0.17040        1.30440
