16
gdb 12590	3.18414	2.02553	1.30167	2.3876	67.02	-0.25	-0.0273	0.2227	919.9637	0.129337	-383.773207	-383.765335	-383.764391	-383.805375	29.11
C          0.10570        1.48850        0.05810
C          0.01410       -0.00020       -0.00170
C         -0.06040       -0.78200       -1.08570
C         -0.11270       -2.25750       -0.76570
C          0.21700       -2.24330        0.72540
O          0.72200       -3.11440        1.38630
C         -0.04870       -0.82950        1.26340
O          0.87770       -0.46230        2.25810
H          0.98120        1.78940        0.64360
H          0.18010        1.92770       -0.94020
H         -0.76940        1.91870        0.56170
H         -0.08190       -0.41130       -2.10490
H         -1.10590       -2.70120       -0.92820
H          0.60140       -2.87650       -1.31960
H         -1.07740       -0.80240        1.67460
H          1.20730       -1.29360        2.62890
