13
gdb 8616	2.15056	2.07704	1.44474	2.9997	65.1	-0.2794	-0.0612	0.2182	905.4039	0.091771	-361.441413	-361.432746	-361.431802	-361.474678	29.997
C         -0.00360        1.60090       -0.04350
C         -0.00760        0.05790       -0.05460
C          0.73550       -0.50750        1.20510
O          1.16680        0.19210        2.07210
C         -1.36190       -0.49760       -0.00160
C         -2.46410       -0.95990        0.11400
C          0.70770       -0.46250       -1.23270
N          1.30840       -0.87260       -2.13050
H          1.02350        1.97010       -0.05110
H         -0.53460        1.98260       -0.91660
H         -0.49530        1.95290        0.86420
H          0.80010       -1.61260        1.22170
H         -3.44440       -1.36320        0.19140
