17
gdb 1467	5.84912	1.21803	1.05548	0.9536	70.15	-0.2413	0.0476	0.2889	1146.8825	0.145042	-309.684571	-309.675226	-309.674282	-309.72018	30.902
C          0.07740        1.35860        0.17070
O         -0.02550       -0.04000        0.03710
C          0.58870       -0.55930       -1.14090
C          2.11590       -0.66230       -0.99250
C         -0.00500       -1.86610       -1.42240
C         -0.46530       -2.94980       -1.67130
C         -1.03640       -4.25630       -1.96380
H          1.11270        1.70050        0.31680
H         -0.33740        1.88320       -0.70490
H         -0.50410        1.63630        1.05330
H          0.36250        0.11660       -1.98420
H          2.55640       -1.07810       -1.90290
H          2.55890        0.32210       -0.81710
H          2.36240       -1.31660       -0.15270
H         -0.26100       -5.02800       -2.02280
H         -1.74470       -4.55760       -1.18430
H         -1.57580       -4.25230       -2.91740
