15
gdb 20628	4.18552	2.02504	1.40101	4.9771	68.56	-0.2389	0.0122	0.2512	865.6326	0.120563	-358.812473	-358.805529	-358.804585	-358.844266	24.911
C         -0.07880        1.53390        0.05750
C         -0.03510        0.04540       -0.04320
C          0.11270       -0.82250       -1.10770
C          0.29530       -1.39330       -2.51410
C          0.23990       -2.80710       -1.81380
N          0.07140       -2.04370       -0.55640
N         -0.09030       -2.03350        0.77150
N         -0.15370       -0.75250        1.07080
H          0.84520        1.99480       -0.30810
H         -0.90710        1.95770       -0.52050
H         -0.21160        1.81800        1.10350
H         -0.52180       -1.20240       -3.21260
H          1.24690       -1.16540       -2.99810
H         -0.62060       -3.43090       -2.06230
H          1.15970       -3.39370       -1.84640
