17
gdb 1354	4.10869	2.42389	2.32418	0.7558	59.97	-0.2478	0.0851	0.3329	696.107	0.147486	-346.868661	-346.861257	-346.860313	-346.900146	27.271
C         -0.07240        1.56850        0.32030
C          0.02810        0.07630        0.01460
C         -1.33150       -0.57640       -0.22170
O          0.86980       -0.08380       -1.13130
C          1.83760       -1.07640       -0.83100
C          1.98890       -0.93800        0.68100
O          0.66930       -0.61630        1.08990
H          0.92060        1.97370        0.53010
H         -0.49150        2.10330       -0.53640
H         -0.71410        1.73550        1.18950
H         -1.85870       -0.07120       -1.03530
H         -1.19900       -1.62870       -0.48500
H         -1.94150       -0.51940        0.68390
H          1.48170       -2.08110       -1.10440
H          2.74900       -0.85720       -1.39360
H          2.29660       -1.85760        1.18570
H          2.69660       -0.13540        0.93770
