22
gdb 6290	3.32253	0.99461	0.94513	2.8416	79.42	-0.2444	-0.0175	0.2269	1368.5875	0.197246	-350.228721	-350.218393	-350.217448	-350.2646	36.632
C         -0.12270        1.52360       -0.09650
C          0.03880       -0.00190       -0.05240
C          0.84180       -0.49700       -1.26400
C          0.70960       -0.48370        1.24910
C         -0.02910       -0.14910        2.56630
C         -1.43680       -0.76460        2.64280
C          0.80760       -0.67780        3.71520
O          1.38260       -0.00330        4.52950
H          0.85000        2.02160       -0.00450
H         -0.56840        1.83990       -1.04520
H         -0.76360        1.89620        0.70800
H         -0.96020       -0.45340       -0.11400
H          1.85490       -0.07750       -1.26130
H          0.93370       -1.58830       -1.26500
H          0.36250       -0.19940       -2.20230
H          0.84420       -1.57320        1.19180
H          1.71920       -0.05310        1.29820
H         -0.08540        0.93590        2.69790
H         -1.91370       -0.53840        3.60150
H         -2.08240       -0.37530        1.85170
H         -1.39680       -1.85470        2.53440
H          0.86660       -1.79360        3.75240
