22
gdb 8312	6.04163	0.81423	0.78023	1.5432	78.8	-0.2543	0.0806	0.3349	1534.4666	0.19976	-350.20203	-350.192772	-350.191828	-350.236275	34.374
C          0.04320        1.56520        0.00730
C          0.14210        0.03740       -0.00940
C          0.63740       -0.54980        1.31780
C          0.74440       -2.06920        1.31090
C          1.84410       -2.74970        0.44240
C          2.02400       -3.78820        1.58040
O          3.29380       -4.31470        1.86990
C          1.34690       -2.78700        2.55240
H          1.01800        2.02280        0.21080
H         -0.31280        1.95440       -0.95170
H         -0.64940        1.90840        0.78400
H         -0.84020       -0.39140       -0.24860
H          0.81450       -0.27810       -0.81770
H          1.62040       -0.12100        1.56100
H         -0.03770       -0.23750        2.12730
H         -0.23350       -2.50430        1.07180
H          1.58930       -3.11160       -0.55640
H          2.73030       -2.10620        0.36730
H          1.38100       -4.65790        1.41330
H          3.89100       -3.57550        2.02610
H          2.10090       -2.15410        3.03770
H          0.67270       -3.17740        3.31870
