12
gdb 20586	3.58884	1.9209	1.26103	2.1321	63.02	-0.2763	-0.0469	0.2294	877.3367	0.084328	-377.541508	-377.534567	-377.533622	-377.57312	24.268
C          0.05060        1.49990        0.05910
C         -0.04870        0.01940        0.07020
C         -1.10630       -0.84580       -0.06680
C         -0.50270       -2.13600        0.04190
N          0.78530       -2.05670        0.22540
O          1.07190       -0.68530        0.24310
C         -2.46620       -0.51770       -0.26760
N         -3.57940       -0.24420       -0.43210
H          0.71380        1.83530       -0.74440
H         -0.93700        1.93920       -0.08990
H          0.46330        1.86520        1.00470
H         -0.98050       -3.10340       -0.01010
