19
gdb 6880	2.91075	1.64728	1.45153	1.0407	79.14	-0.2196	0.0362	0.2557	992.0557	0.161925	-327.870932	-327.861469	-327.860525	-327.904183	35.067
C         -0.25530        1.47940        0.01520
N          0.03290        0.05290        0.08240
C          1.37840       -0.43320       -0.29100
C          2.42820        0.46800       -0.67590
C          3.30500        1.21160       -1.03320
C          0.88060       -0.49780        1.13730
C          1.50710        0.39230        2.19370
C          0.40940       -1.84250        1.65880
H          0.60130        2.13960        0.20130
H         -0.64210        1.70650       -0.98310
H         -1.04100        1.70980        0.74140
H          1.35490       -1.35300       -0.87360
H          4.08430        1.86170       -1.34560
H          1.96840        1.28650        1.77390
H          0.75510        0.69780        2.93020
H          2.28590       -0.16010        2.72940
H          1.24520       -2.41840        2.07120
H         -0.32980       -1.70520        2.45650
H         -0.06100       -2.42240        0.86140
