15
gdb 3327	6.16407	1.89593	1.70887	0.861	56.45	-0.2522	0.0766	0.3287	745.5657	0.124842	-345.602645	-345.59596	-345.595016	-345.633338	24.599
O         -0.02650        1.38730       -0.21580
C          0.02950       -0.00130        0.08540
C         -1.38320       -0.54400        0.00750
C         -2.08220       -0.59550       -1.40170
C         -2.21410       -2.11340       -1.22530
O         -0.89040       -2.63750       -1.05430
C         -1.54860       -2.07310        0.08690
H          0.87450        1.71850       -0.27060
H          0.66150       -0.54570       -0.62990
H          0.43870       -0.17450        1.09500
H         -2.02100       -0.03320        0.73490
H         -3.03870       -0.06890       -1.41290
H         -1.47990       -0.27710       -2.25530
H         -2.96410       -2.79250       -1.61380
H         -1.65300       -2.70770        0.95990
