18
gdb 5835	3.07533	1.56604	1.36941	2.5877	64.24	-0.2647	-0.034	0.2307	980.2126	0.14962	-422.090665	-422.081166	-422.080222	-422.124263	34.762
C         -0.08070        1.56110       -0.02160
C         -0.00120        0.03210       -0.00140
C          0.61750       -0.47290        1.30690
O         -1.29600       -0.54260       -0.21200
C          0.81620       -0.45820       -1.22840
O          2.11990        0.05230       -1.20780
C          0.85090       -1.97310       -1.31360
O          1.90250       -2.56800       -1.37450
H          0.91920        2.00010        0.01130
H         -0.58500        1.90250       -0.93010
H         -0.64520        1.92520        0.84490
H          0.07480       -0.06960        2.16880
H          0.57880       -1.56490        1.36280
H          1.66060       -0.15560        1.38140
H         -1.87400       -0.24030        0.49580
H          0.26940       -0.11230       -2.12390
H          2.69890       -0.72500       -1.27700
H         -0.12300       -2.49120       -1.32690
