15
gdb 7063	6.44641	0.92076	0.8591	4.0784	66.23	-0.2717	0.0005	0.2722	1258.141	0.118904	-358.86718	-358.858535	-358.857591	-358.900917	30.024
N         -0.08800        1.49620        0.02320
C         -0.01180        0.04780        0.00200
C          0.66680       -0.56200       -1.26210
C          0.01800       -0.10180       -2.48520
N         -0.52070        0.29050       -3.42940
C          0.74140       -0.45020        1.25410
C          0.05700       -0.11000        2.49860
N         -0.48350        0.12850        3.49090
H          0.82730        1.91700       -0.11090
H         -0.68940        1.83850       -0.71910
H         -1.03760       -0.33290        0.04450
H          1.72420       -0.26990       -1.29320
H          0.63580       -1.65760       -1.23310
H          0.86840       -1.53780        1.21370
H          1.74860       -0.01460        1.27500
