16
gdb 12870	2.73084	2.35513	1.81428	0.9019	64.75	-0.2241	0.0074	0.2315	792.6527	0.130359	-383.723363	-383.716171	-383.715227	-383.754167	28.529
O          0.03700        1.37420       -0.09960
C         -0.07270       -0.01220       -0.03590
C         -0.45210       -0.77070        1.23760
C         -1.13460        0.03670        2.28470
C         -2.29590        0.54200        1.84890
C         -2.60970        0.09990        0.43630
C         -1.38880       -0.73340        0.02790
O         -1.59150       -1.89260       -0.72200
H         -0.38650        1.73480        0.69100
H          0.69190       -0.49180       -0.64040
H          0.12100       -1.65440        1.49420
H         -0.71020        0.20160        3.26860
H         -2.95570        1.18400        2.42150
H         -3.51680       -0.51570        0.39150
H         -2.76270        0.95310       -0.23770
H         -1.60970       -1.64640       -1.65350
