15
gdb 16589	3.35397	1.89599	1.54658	1.7107	61.99	-0.2342	-0.0294	0.2048	849.2583	0.117394	-399.750745	-399.74303	-399.742086	-399.782868	28.029
C         -0.13040        1.52450        0.02360
N          0.10280        0.08640       -0.10540
C          0.67100       -0.53810       -1.25640
C          1.40530       -0.52830        0.10230
C          2.50770        0.23780       -0.57780
O          3.67420        0.40500       -0.34740
C          1.73590        0.34480       -1.93180
O          2.44430       -0.32770       -2.94540
H          0.67440        2.17180       -0.34600
H         -1.05020        1.77170       -0.51430
H         -0.28620        1.74540        1.08290
H          0.18460       -1.38840       -1.72040
H          1.51620       -1.29280        0.86370
H          1.39070        1.33100       -2.26520
H          3.37580       -0.09490       -2.84480
