11
gdb 3872	7.66889	2.23711	1.7362	2.9304	48.65	-0.221	0.0237	0.2447	661.8571	0.08068	-372.766726	-372.760678	-372.759733	-372.796145	22.794
N         -0.01020        1.32100        0.13450
C         -0.04610       -0.03430        0.05700
N         -1.10230       -0.80030        0.09200
C         -0.52320       -2.04740        0.04400
N         -1.28920       -3.18230        0.12400
N          0.78820       -2.07590       -0.03350
O          1.11600       -0.67970       -0.01440
H          0.82270        1.77040       -0.21060
H         -0.87960        1.78680       -0.06880
H         -2.23030       -3.06400       -0.21860
H         -0.83480       -4.02230       -0.20130
