14
gdb 19001	5.13743	1.92948	1.66298	1.9051	60.67	-0.2353	-0.0245	0.2108	755.3709	0.108167	-382.494275	-382.488625	-382.487681	-382.523982	22.739
O         -0.02910       -0.00780       -0.03160
C         -0.02560        1.19380        0.00020
C         -1.23910        2.14620        0.01620
C         -0.49790        3.47450        0.05670
C          0.78630        3.39500       -0.82240
O          1.50810        4.28530        0.09300
C          0.77310        3.34830        0.94950
C          1.15430        2.13530        0.03370
H         -1.85720        2.00720       -0.87690
H         -1.87040        1.96060        0.89130
H         -1.03630        4.41990        0.07760
H          0.91500        3.54190       -1.89490
H          0.88570        3.43850        2.03010
H          2.16910        1.74740        0.03110
