9
gdb 31	28.0016	4.67752	4.21765	3.9233	35.38	-0.3213	0.034	0.3553	314.5335	0.07419	-172.006141	-172.001467	-172.000523	-172.032826	14.988
C         -0.02520        1.54770        0.02130
C          0.01180        0.01000       -0.01560
C          0.68920       -0.50840       -1.20330
N          1.22570       -0.90360       -2.14740
H          0.98570        1.96210        0.02370
H         -0.55520        1.94600       -0.84710
H         -0.53960        1.88290        0.92540
H          0.52480       -0.38230        0.86930
H         -1.00450       -0.39830        0.00530
