14
gdb 17953	3.3918	2.34131	2.12719	2.1787	55.9	-0.2197	0.0604	0.2801	699.7462	0.107495	-419.609618	-419.603505	-419.602561	-419.639548	24.224
O         -0.04810        1.42920       -0.05610
C          0.03060        0.05860       -0.00590
C         -1.00250       -1.03390        0.01670
O         -0.40630       -1.77930       -1.04120
C          0.76960       -0.91190       -0.97790
C          1.79160       -1.61000       -0.09700
O          1.12100       -1.76150        1.16580
C          0.02200       -0.88380        1.15630
H          0.58960        1.79890        0.56510
H         -2.07980       -1.05440        0.13060
H          1.09520       -0.56380       -1.95850
H          2.05860       -2.60330       -0.46830
H          2.70560       -1.00450        0.01720
H         -0.32550       -0.58400        2.13820
