18
gdb 10350	2.37085	1.73206	1.11398	1.8108	65.07	-0.2425	-0.0227	0.2198	1091.356	0.150443	-422.077556	-422.067821	-422.066876	-422.112524	33.511
C          0.07610        1.29080        0.00730
O         -0.03460       -0.10540       -0.20990
C         -1.32330       -0.63930       -0.03260
C         -1.28870       -2.01890       -0.71560
O         -0.89160       -1.89700       -2.06030
C         -1.73630       -0.73880        1.44420
C         -3.13110       -1.27390        1.72080
O         -0.98520       -0.41170        2.33170
H          1.09790        1.57050       -0.25890
H         -0.62330        1.84800       -0.63440
H         -0.10630        1.54890        1.05500
H         -2.07310       -0.01830       -0.55550
H         -0.60790       -2.67160       -0.14560
H         -2.28360       -2.47280       -0.70960
H         -0.10320       -1.33960       -2.04280
H         -3.86710       -0.87890        1.01360
H         -3.13330       -2.36540        1.61520
H         -3.41830       -1.02560        2.74350
