16
gdb 4185	5.04729	1.45704	1.28593	1.1582	68.49	-0.223	-0.0029	0.2201	953.7358	0.130891	-379.826062	-379.818892	-379.817948	-379.857794	26.982
O         -0.02840        1.36680        0.32620
N          0.09940       -0.03360        0.33750
C         -0.99030       -0.58790        0.01430
C         -2.40660       -0.17240       -0.32990
N         -2.80400       -1.61850       -0.42130
C         -2.63760       -2.16870       -1.80920
C         -1.21950       -2.71060       -1.48830
C         -1.37110       -2.04350       -0.09780
H          0.84860        1.65420        0.60250
H         -2.92800        0.35730        0.47490
H         -2.52970        0.40220       -1.25550
H         -3.38590       -2.93320       -2.03560
H         -2.68280       -1.40310       -2.59180
H         -1.15960       -3.79930       -1.43630
H         -0.39710       -2.34230       -2.10390
H         -1.20140       -2.66750        0.78350
