14
gdb 7903	3.59806	1.68831	1.19107	4.318	58.45	-0.2377	-0.0915	0.1462	937.1261	0.105986	-419.708318	-419.700947	-419.700003	-419.740209	27.123
O          0.18310        1.21830       -0.56210
C          0.05530       -0.05640        0.03540
C          0.50780       -0.11140        1.51200
C         -0.33070       -1.21220        2.14550
O         -0.11200       -1.84050        3.14360
C         -1.57690       -1.41480        1.22220
O         -2.45130       -2.21000        1.42720
C         -1.43110       -0.44360        0.06200
H          1.12020        1.42410       -0.64470
H          0.61380       -0.81090       -0.53950
H          1.57800       -0.26770        1.66520
H          0.23180        0.83930        1.98990
H         -2.01340        0.45880        0.29690
H         -1.81400       -0.84980       -0.87540
