15
gdb 10676	2.52765	2.28827	1.35496	1.7206	63.07	-0.261	-0.0406	0.2204	895.5352	0.116723	-399.803825	-399.79563	-399.794686	-399.83685	28.846
C          0.82420        1.01420        0.44000
C         -0.25680        0.08850       -0.05040
O         -1.30860       -0.05750        0.53900
C         -0.02760       -0.71520       -1.31580
C         -0.21770       -2.21130       -1.13260
N         -1.20770       -1.44020       -1.83930
C          0.92570       -0.30340       -2.38910
O          1.76420        0.55850       -2.30420
H          1.76970        0.47370        0.55090
H          1.01610        1.79360       -0.30230
H          0.51770        1.44910        1.39180
H          0.37830       -2.89040       -1.73720
H         -0.41700       -2.53460       -0.11440
H         -1.97160       -1.21350       -1.19930
H          0.78340       -0.89510       -3.31920
