13
gdb 16481	3.02339	2.83376	1.79083	4.3091	57.5	-0.2401	-0.0056	0.2345	717.0515	0.095428	-398.534367	-398.528049	-398.527105	-398.564638	24.284
O         -0.15470        1.34640        0.04100
C          0.04590       -0.00530        0.05270
C         -0.08100       -0.89900       -1.23520
C          0.62310       -2.20420       -0.88780
N          0.00380       -2.09200        0.50410
C         -1.00070       -1.09870       -0.08460
C          0.74690       -0.89930        1.02730
O          1.50130       -0.80900        1.94030
H          0.58180        1.77140       -0.41290
H         -0.28080       -0.41890       -2.18700
H          0.21940       -3.07440       -1.41140
H          1.71790       -2.24200       -0.88450
H         -2.06360       -1.08500        0.10070
