15
gdb 15734	6.91006	1.0365	0.97498	6.037	67.23	-0.2702	-0.0337	0.2365	1168.5555	0.117906	-362.683324	-362.675278	-362.674334	-362.716802	28.146
O         -0.07110       -0.11330       -0.07630
C         -0.06520        1.09310       -0.02680
C          1.24500        1.90270        0.02560
C          2.44820        1.08150        0.00980
N          3.41570        0.45200       -0.00170
C         -1.30360        1.91530       -0.01130
C         -2.49870        1.38330       -0.79510
C         -2.52080        1.32210        0.69020
H          1.26100        2.59930       -0.82210
H          1.23530        2.52790        0.92740
H         -1.17370        2.99080        0.03490
H         -3.11450        2.11630       -1.30270
H         -2.32750        0.45780       -1.33230
H         -2.36450        0.35540        1.15430
H         -3.15240        2.01160        1.23780
