18
gdb 14695	7.92347	0.575	0.56471	2.7997	78.9	-0.2449	-0.0262	0.2186	1969.7241	0.150637	-347.795322	-347.785392	-347.784448	-347.834172	32.918
C         -0.32860        1.52370       -0.11400
C         -0.19350        0.00070       -0.16270
C          1.02690       -0.45240       -0.99060
C          1.17530       -1.90210       -1.05220
C          1.27740       -3.10230       -1.06960
C          1.38760       -4.55120       -1.15970
C          1.07550       -5.07010       -2.56500
O          0.47680       -6.08770       -2.78330
H          0.55670        1.98750        0.33540
H         -0.44880        1.94470       -1.11850
H         -1.19800        1.82370        0.47840
H         -0.10180       -0.40300        0.85170
H         -1.09730       -0.44570       -0.59180
H          0.94230       -0.05080       -2.00950
H          1.93780       -0.00720       -0.56800
H          2.41610       -4.87040       -0.92890
H          0.73040       -5.06790       -0.45250
H          1.46480       -4.42680       -3.38410
