20
gdb 8001	3.18158	1.59941	1.17634	1.3893	77.67	-0.236	0.0227	0.2588	1082.9404	0.176551	-349.028396	-349.019632	-349.018688	-349.061493	32.928
C         -0.00320        1.57610       -0.04690
C          0.03740        0.04470        0.01350
C          0.77370       -0.62170       -1.17650
C          1.52310       -1.84150       -0.58970
O          2.79030       -2.09540       -1.18770
C          1.58590       -1.53580        0.89810
C          2.43040       -2.36390        1.81350
C          0.78340       -0.51500        1.20510
H          1.01010        1.99290       -0.06750
H         -0.52860        1.92210       -0.94330
H         -0.51970        1.99420        0.82400
H         -1.00270       -0.31460        0.04450
H          0.11240       -0.88430       -2.00600
H          1.52430        0.07460       -1.57300
H          0.96640       -2.77330       -0.76010
H          3.32370       -1.30050       -1.07340
H          3.46510       -2.40780        1.45670
H          2.42590       -1.97480        2.83510
H          2.07410       -3.40220        1.84160
H          0.63030       -0.12970        2.20960
