12
gdb 7037	6.94377	1.07627	0.94012	7.7406	55.73	-0.2613	-0.0447	0.2167	1121.8489	0.082523	-451.861785	-451.853661	-451.852717	-451.895625	26.643
O         -0.50600        0.20290        0.34860
C         -0.15660        1.30900        0.05290
N          1.15720        1.75820       -0.08140
C          2.32340        0.96580       -0.01510
O          2.33960       -0.22790       -0.02150
N          3.46780        1.78880        0.06000
C          4.79320        1.37690       -0.07900
O          5.17250        0.28390       -0.38640
H         -0.85920        2.14470       -0.14220
H          1.25740        2.73150       -0.32950
H          3.34120        2.75630        0.31850
H          5.47290        2.22920        0.12530
