12
gdb 584	13.07302	1.97457	1.86172	3.9549	47.46	-0.2762	0.0022	0.2785	647.0438	0.09542	-306.370119	-306.364013	-306.363068	-306.400339	20.641
O          0.05180        0.06880        0.14040
C          0.17470        1.24750        0.28240
O          0.97330        1.99440       -0.51070
C          0.99600        3.38400       -0.24310
C          1.85090        3.89380        0.88460
C          2.27870        4.07980       -0.55540
H         -0.33780        1.84580        1.05950
H          0.05720        3.88190       -0.46740
H          1.49950        4.75170        1.44650
H          2.38790        3.15470        1.46820
H          3.08780        3.45600       -0.91680
H          2.23020        5.06820       -0.99700
