19
gdb 9926	2.86055	1.50174	1.38985	4.508	76.85	-0.2716	0.0402	0.3118	1031.8054	0.164141	-327.943066	-327.933745	-327.932801	-327.976543	33.68
C         -0.22720        1.00540       -1.80070
C         -0.01490       -0.20170       -0.91300
C          1.32670       -0.62750       -0.37580
C          2.62240        0.10090       -0.65990
C          0.27190       -0.06860        0.58870
C          0.43170        1.28680        1.26360
C         -0.37570       -1.04530        1.43090
N         -0.89490       -1.82550        2.11060
H          0.45590        1.82800       -1.57990
H         -0.07780        0.72940       -2.85000
H         -1.24910        1.38570       -1.70120
H         -0.68170       -1.02520       -1.15330
H          1.45540       -1.70350       -0.29750
H          2.49600        1.18040       -0.76390
H          3.34930       -0.07340        0.14010
H          3.06240       -0.26780       -1.59260
H          0.92320        2.00990        0.61240
H         -0.54460        1.69380        1.54280
H          1.02950        1.19340        2.17510
