16
gdb 11707	6.13203	1.34786	1.23796	1.867	72.88	-0.2431	0.0202	0.2633	996.2939	0.128606	-346.535276	-346.527606	-346.526662	-346.566893	29.298
C         -0.02090        1.59440        0.10220
C          0.03180        0.07650        0.00990
C          1.07090       -0.58200       -0.97320
C          1.69110       -1.31350        0.23190
O          2.10200       -0.28840        1.16150
C          0.72830       -0.67260        1.16070
C          2.34220       -2.57740        0.25900
C          2.88430       -3.65060        0.23150
H          0.96980        1.99420        0.33590
H         -0.35380        2.03370       -0.84390
H         -0.71560        1.92020        0.88400
H         -0.96400       -0.34210       -0.16680
H          0.60740       -1.25700       -1.69490
H          1.75790        0.09520       -1.48600
H          0.31630       -1.03580        2.09610
H          3.36730       -4.59630        0.21980
