18
gdb 7079	6.48598	0.80815	0.76017	2.1355	69.82	-0.2523	-0.0386	0.2137	1433.0397	0.149748	-384.962669	-384.953047	-384.952103	-384.998565	32.333
C          0.03840        1.60030       -0.15620
C         -0.00080        0.07650        0.03270
C         -1.45160       -0.44540        0.08050
C         -2.20870        0.06380        1.28760
O         -3.27790        0.61460        1.25550
C          0.79950       -0.64600       -1.07020
C          2.27930       -0.33610       -1.00680
O          2.94660        0.05770       -1.92730
H          1.06580        1.97690       -0.16080
H         -0.42310        1.88360       -1.10860
H         -0.50420        2.11680        0.64150
H          0.47070       -0.16540        0.99740
H         -2.00600       -0.17360       -0.82340
H         -1.43790       -1.54290        0.15300
H         -1.68790       -0.11830        2.25870
H          0.69620       -1.73300       -0.93770
H          0.42870       -0.39080       -2.06800
H          2.73590       -0.51030       -0.00260
