13
gdb 2132	3.98079	3.15175	1.79827	4.4336	56.43	-0.2672	-0.0359	0.2313	674.492	0.102242	-344.512001	-344.505657	-344.504713	-344.542299	22.683
C          0.00420        1.51680       -0.01710
C         -0.05170        0.02710       -0.00230
C         -1.06880       -0.82210       -0.15680
C         -0.56550       -2.23060       -0.05070
O          0.83620       -2.10910        0.17930
C          1.18140       -0.78160        0.21490
O          2.30640       -0.40760        0.39500
H          0.68740        1.86670       -0.79830
H         -0.98090        1.95670       -0.18710
H          0.40140        1.89450        0.93100
H         -2.10960       -0.58100       -0.33300
H         -1.01850       -2.78360        0.78220
H         -0.72900       -2.81200       -0.96730
