16
gdb 1983	5.81495	1.59429	1.35508	2.5275	61.14	-0.2427	-0.0164	0.2263	887.9112	0.135744	-325.766945	-325.759193	-325.758249	-325.799808	27.055
C         -0.13390        0.69550       -0.91300
C          0.09800       -0.02870        0.40130
O          1.04100        0.22310        1.11400
C         -0.92090       -1.10460        0.79180
C         -0.96260       -2.26310       -0.18670
C         -2.17780       -3.10090       -0.32470
N         -1.76970       -2.19910       -1.41900
H          0.66550        1.41790       -1.08110
H         -0.17580       -0.01750       -1.74310
H         -1.09850        1.21680       -0.89170
H         -0.64650       -1.45770        1.79040
H         -1.91960       -0.64990        0.85330
H         -0.00020       -2.74810       -0.34130
H         -2.08820       -4.16050       -0.54550
H         -3.04770       -2.83490        0.27080
H         -2.35550       -1.36710       -1.40240
