18
gdb 19284	3.28611	1.77151	1.39541	0.8606	66.95	-0.2497	0.0722	0.3219	931.6315	0.152935	-384.893803	-384.885719	-384.884775	-384.926112	30.179
C         -0.35000        1.55300        0.15720
C         -0.09320        0.05250        0.12740
C          0.40610       -0.55210       -1.19650
O          1.69280        0.01980       -1.47050
C          1.61890       -1.09000       -0.56350
C          1.21240       -0.54080        0.81100
C          2.19320        0.38600        1.50190
O          1.57950        0.85060        2.69990
H          0.45750        2.09290       -0.34500
H         -1.28690        1.79700       -0.35530
H         -0.41460        1.91160        1.18770
H         -0.96690       -0.49440        0.49480
H         -0.16110       -0.91110       -2.04820
H          2.21630       -1.96240       -0.80410
H          0.93950       -1.34860        1.49680
H          3.12130       -0.16760        1.72240
H          2.45590        1.21700        0.83430
H          2.15470        1.51310        3.09360
