11
gdb 3832	5.90058	2.85157	1.92249	2.3366	57.98	-0.2273	-0.0463	0.181	604.1432	0.08158	-335.590859	-335.585462	-335.584518	-335.620063	19.911
N         -0.09040        1.32720        0.00100
C          0.00560        0.04450        0.00730
C          1.22270       -0.76490        0.00320
N          1.23040       -2.06200        0.01000
N          0.04090       -2.66630        0.02160
N         -1.16810       -2.08920        0.02720
C         -1.19030       -0.79360        0.02050
H          0.83840        1.75570       -0.00790
H          2.19790       -0.28440       -0.00650
H          0.05270       -3.67220        0.02670
H         -2.16700       -0.32090        0.02490
