16
gdb 14340	4.61977	1.83005	1.553	1.4461	65.04	-0.2184	0.0577	0.2761	839.6016	0.133315	-379.937441	-379.930768	-379.929824	-379.968323	26.109
N         -0.05450        1.37790        0.00970
C         -0.09310        0.01070       -0.01690
N         -1.11810       -0.72800        0.16820
C         -0.67290       -2.10300       -0.03840
C         -0.99020       -2.70060       -1.44040
C          0.48180       -2.42700       -1.88510
C          0.82910       -1.96710       -0.44840
O          1.11170       -0.56230       -0.31620
H          0.84550        1.77730        0.22670
H         -0.83420        1.80020        0.48910
H         -0.93440       -2.73210        0.81740
H         -1.24790       -3.76270       -1.41500
H         -1.76560       -2.16160       -1.98760
H          1.03830       -3.29970       -2.23480
H          0.59970       -1.62510       -2.61730
H          1.60430       -2.52220        0.08150
