15
gdb 14075	3.83245	1.63413	1.37008	3.2883	62.36	-0.2707	-0.0045	0.2662	918.7048	0.119046	-399.799014	-399.791647	-399.790703	-399.830758	26.8
C         -0.07430        1.51450       -0.11990
C          0.01800        0.01440        0.00650
N          1.35200       -0.58520       -0.13350
C          0.69130       -0.63520        1.16040
C          1.19890       -0.13840        2.50760
O          0.65140       -1.35440        3.12680
C          0.22940       -1.85440        1.91470
O         -0.28460       -2.90160        1.68190
H          0.80990        1.99390        0.30820
H         -0.13920        1.80590       -1.17310
H         -0.96450        1.89400        0.39210
H         -0.81980       -0.54720       -0.40450
H          1.30380       -1.49970       -0.57900
H          2.28390       -0.09890        2.61920
H          0.72490        0.75380        2.92170
