18
gdb 11538	3.99639	1.17732	1.01506	2.5988	68.74	-0.2419	-0.0123	0.2297	1194.95	0.151537	-384.94062	-384.931679	-384.930735	-384.975278	31.12
C         -0.58830        1.14700       -0.47670
C         -0.07310       -0.28310       -0.60700
C          1.35920       -0.37710       -1.10090
O          2.05800        0.59260       -1.28750
C          1.87210       -1.78710       -1.40970
C          1.56590       -2.13870       -2.85300
C          1.18080       -3.49380       -3.26380
O          0.20350       -2.45540       -3.15700
H          0.03880        1.72730        0.20490
H         -0.57320        1.65640       -1.44390
H         -1.61420        1.15600       -0.09850
H         -0.11930       -0.81200        0.35660
H         -0.68970       -0.88640       -1.28710
H          2.95610       -1.79690       -1.26030
H          1.40690       -2.52790       -0.75200
H          2.04390       -1.49240       -3.58960
H          1.38940       -3.83520       -4.27640
H          1.11160       -4.27980       -2.51290
