22
gdb 13873	3.85039	1.41642	1.09271	0.1289	82.72	-0.2336	0.0312	0.2649	1146.3793	0.200899	-313.0929	-313.084337	-313.083392	-313.125681	32.996
C          0.00200        1.53310        0.05110
C         -0.03860       -0.00120        0.00250
C         -1.49310       -0.49320        0.00250
C          0.74610       -0.55130       -1.20090
C          2.24150       -0.12450       -1.26100
C          2.92420       -1.31450       -1.89040
C          2.13380       -2.38560       -1.91610
C          0.78130       -2.10340       -1.30840
H          1.02560        1.91360        0.11540
H         -0.45800        1.96320       -0.84700
H         -0.54930        1.91250        0.91790
H          0.44810       -0.38210        0.91360
H         -2.01920       -0.15250       -0.89780
H         -1.55590       -1.58490        0.03160
H         -2.03810       -0.10520        0.86960
H          0.26480       -0.17420       -2.11420
H          2.39020        0.80330       -1.82460
H          2.64620        0.06220       -0.25400
H          3.95200       -1.28430       -2.23580
H          2.41630       -3.36550       -2.28570
H          0.69940       -2.57620       -0.31730
H         -0.04810       -2.50110       -1.90390
