16
gdb 20078	4.47498	1.6197	1.48481	1.7429	59.7	-0.2559	0.0843	0.3402	875.096	0.131491	-420.843638	-420.836554	-420.83561	-420.87573	25.475
C          0.32640        1.44070        0.28170
O          1.26230        0.37230        0.08170
C         -0.13000        0.06040        0.09670
C         -0.60090       -0.79570        1.25380
C          0.01290       -2.22600        1.22400
O          0.47240       -2.43130        2.55090
C          0.81070       -1.15000        3.01160
O         -0.18200       -0.27260        2.51050
H          0.31980        1.86140        1.28310
H          0.24860        2.14850       -0.54200
H         -0.54220       -0.22750       -0.87340
H         -1.69770       -0.82710        1.24950
H         -0.71430       -3.00490        0.98640
H          0.84520       -2.27250        0.50810
H          0.77880       -1.14160        4.10450
H          1.80390       -0.84470        2.64380
