18
gdb 6086	4.07988	0.86774	0.76201	1.2745	73.5	-0.2569	0.0303	0.2872	1507.4907	0.15057	-384.907963	-384.897847	-384.896903	-384.943899	35.341
C         -0.40540        1.53370       -0.26170
C          0.12930        0.12450        0.03220
O         -0.90200       -0.74050        0.50410
C          0.82720       -0.43800       -1.12930
C          1.37980       -0.89690       -2.09780
C          2.02460       -1.45980       -3.28930
C          1.51550       -2.87780       -3.58690
O          1.88850       -0.60460       -4.42270
H          0.40970        2.21260       -0.52810
H         -1.11320        1.50820       -1.09670
H         -0.91920        1.91830        0.62310
H          0.83470        0.18540        0.86990
H         -1.47680       -0.93680       -0.24400
H          3.10640       -1.50590       -3.11440
H          1.71440       -3.54830       -2.74600
H          0.43520       -2.86720       -3.76500
H          2.01530       -3.26250       -4.47960
H          0.94890       -0.42100       -4.53270
