18
gdb 7255	4.42166	1.04409	0.99148	1.6471	73.22	-0.255	-0.017	0.2379	1254.3477	0.153165	-381.171065	-381.1618	-381.160856	-381.205838	32.536
C         -0.02920        1.36170       -0.33440
C          0.03350       -0.09750        0.15610
C          0.99610       -0.25160        1.34050
C         -1.37200       -0.53110        0.56970
O         -1.89430       -0.17300        1.60580
N         -2.02840       -1.34020       -0.34280
C         -3.32550       -1.79960       -0.17530
N         -3.85950       -2.53800       -1.06030
H          0.96690        1.70720       -0.62600
H         -0.69290        1.46940       -1.19810
H         -0.40140        2.01010        0.46400
H          0.37560       -0.73100       -0.67220
H          0.62530        0.31450        2.19840
H          1.09330       -1.29840        1.64410
H          1.99000        0.12040        1.07490
H         -1.56330       -1.62820       -1.19180
H         -3.76590       -1.45010        0.76030
H         -4.80820       -2.78670       -0.78610
