14
gdb 4358	4.05748	1.97874	1.34114	2.2126	66.22	-0.2494	-0.0269	0.2225	873.0584	0.109155	-374.983398	-374.975892	-374.974948	-375.015801	26.39
C         -0.02640        1.47880        0.02060
C          0.00900       -0.02170        0.01800
N          0.04610       -0.62950       -1.18100
C          0.07400       -1.95910       -1.11600
N          0.07050       -2.70710       -0.01950
C          0.03570       -1.98990        1.11870
N          0.04610       -2.67160        2.28300
N          0.00120       -0.64580        1.19270
H          0.85910        1.87150       -0.48890
H         -0.89610        1.83100       -0.54280
H         -0.06560        1.86180        1.04020
H          0.10160       -2.49390       -2.06420
H         -0.00700       -3.67430        2.26320
H         -0.05770       -2.16850        3.14590
