12
gdb 21128	5.05917	1.77438	1.39506	2.3339	63.69	-0.2448	-0.0849	0.1599	837.0072	0.083711	-406.920053	-406.913326	-406.912381	-406.951197	24.031
C          0.13410        1.39480        0.05890
N          0.12550       -0.05480       -0.00800
C          0.37820       -0.64060       -1.09710
N          0.61800       -0.01360       -2.35150
N          1.42730       -0.58360       -3.12120
N          1.95330       -1.77060       -2.66790
N          1.14940       -2.61830       -1.91630
N          0.34150       -2.06460       -1.14210
H          0.92910        1.70370        0.74730
H          0.27240        1.90080       -0.90150
H         -0.81030        1.71740        0.51000
H          2.43690       -2.27190       -3.40330
