20
gdb 9841	3.35418	1.2878	1.24765	2.4968	70.69	-0.2519	0.0602	0.3121	1096.3676	0.175577	-386.12263	-386.113398	-386.112454	-386.15636	34.544
C         -0.04320        1.52770        0.33580
C         -0.01970        0.03700        0.04330
C          1.29070       -0.57860       -0.39400
C          0.75600       -0.84660        0.99100
C         -1.27900       -0.56530       -0.55940
O         -2.41130       -0.49030        0.32010
C         -1.67920        0.01280       -1.92110
O         -2.84710       -0.61820       -2.40270
H          0.89320        1.84020        0.80710
H         -0.17120        2.12810       -0.57090
H         -0.84870        1.79390        1.03250
H          1.26350       -1.38680       -1.11770
H          2.14960        0.07600       -0.49730
H          1.25480       -0.37470        1.83090
H          0.35940       -1.83240        1.20770
H         -1.12280       -1.64170       -0.69480
H         -2.53730        0.43470        0.56070
H         -1.82430        1.10430       -1.83510
H         -0.88260       -0.15440       -2.65400
H         -3.41840       -0.71230       -1.62890
