17
gdb 11343	4.37911	1.36517	1.06128	6.3245	75.49	-0.2124	-0.0036	0.2088	1093.7948	0.142623	-363.91276	-363.904286	-363.903341	-363.947152	29.614
C         -0.05960        1.43680       -0.09130
N          0.03510       -0.00250        0.03280
C          0.65240       -0.61840        1.06260
C          1.27440       -0.04930        2.13100
C          1.81260       -1.07040        3.01670
O          2.42360       -0.91980        4.05550
C          1.46990       -2.44650        2.40070
C          0.70080       -2.13320        1.10570
H          0.93470        1.89740       -0.14190
H         -0.60260        1.68440       -1.00510
H         -0.59420        1.87460        0.76060
H         -0.37890       -0.57220       -0.68430
H          1.37600        1.00800        2.33050
H          2.39330       -3.00440        2.22250
H          0.88030       -3.02720        3.11550
H         -0.31490       -2.54710        1.10380
H          1.19920       -2.52400        0.21020
