13
gdb 21669	3.53255	2.38996	1.42598	1.2477	67.92	-0.1994	-0.0343	0.1651	798.1841	0.098734	-390.952586	-390.945885	-390.944941	-390.98316	25.685
N          0.01620        1.30320        0.08940
C         -0.00480       -0.04600        0.04040
N         -1.14160       -0.69490        0.03720
N         -1.04670       -2.04170        0.02550
N          0.03690       -2.78270        0.01220
C          1.18470       -2.15020        0.00250
C          1.30770       -0.71540        0.00730
N          2.36650        0.02430       -0.01990
H          0.91920        1.72690       -0.06270
H         -0.83030        1.82410       -0.05790
H         -1.92490       -2.53240        0.03030
H          2.07080       -2.77680       -0.01270
H          3.21210       -0.54740       -0.04950
