19
gdb 2801	4.23114	1.97052	1.50953	1.7323	67.32	-0.2394	0.0856	0.3249	881.8578	0.171129	-310.909551	-310.901438	-310.900493	-310.94258	28.975
C          0.16840        1.56780        0.03870
C          0.01390        0.04330        0.02990
C          0.53700       -0.56780       -1.25950
O          1.96140       -0.35500       -1.43070
C          2.20320       -1.76200       -1.62050
C          0.71560       -2.10980       -1.39210
C          0.39210       -3.00580       -0.20350
H          1.21770        1.84370       -0.09870
H         -0.40860        2.02910       -0.77060
H         -0.17810        1.99630        0.98380
H          0.55210       -0.38620        0.88210
H         -1.04300       -0.23190        0.14560
H         -0.01140       -0.13400       -2.11010
H          2.59660       -1.98050       -2.62170
H          2.90210       -2.16230       -0.87350
H          0.22780       -2.50280       -2.28820
H          0.89890       -2.67410        0.70790
H         -0.68360       -3.03270       -0.00040
H          0.71510       -4.03320       -0.40390
