17
gdb 16403	3.54134	2.17684	1.71784	1.7166	67.14	-0.2227	-0.0121	0.2105	796.7938	0.144788	-363.853708	-363.847191	-363.846247	-363.884659	25.605
O          0.06100       -0.02560       -0.17740
C          0.02990        1.16460        0.01910
C         -1.27480        1.92080        0.31050
C         -1.05220        3.36440        0.86190
N          0.33420        3.85010        0.74830
C          0.88610        3.43290       -0.58830
C          1.25770        2.05090        0.01010
C          1.24720        2.82780        1.35890
H         -1.81960        1.95270       -0.64080
H         -1.88390        1.30540        0.97770
H         -1.69960        4.07250        0.33560
H         -1.32530        3.41080        1.92070
H          0.18020        3.47490       -1.42310
H          1.76760        4.03240       -0.83360
H          2.14590        1.50820       -0.31630
H          2.21890        3.27460        1.58970
H          0.86020        2.32530        2.25080
