16
gdb 16496	2.85199	2.6217	1.79578	1.218	63.66	-0.2412	0.0752	0.3165	769.5198	0.130675	-383.679544	-383.672663	-383.671719	-383.710042	27.576
O         -0.02380        1.48720        0.12500
C         -0.00150        0.07770        0.08950
C          0.21020       -0.73670        1.40830
C         -0.84690       -0.15840        2.38820
C         -1.88240       -0.76490        1.44460
C         -0.87700       -1.74690        0.87000
C         -1.34950       -0.60590        0.00790
O         -2.16870       -0.71090       -1.09520
H          0.88140        1.81070        0.08290
H          0.65800       -0.29950       -0.70400
H          1.21400       -0.99580        1.73840
H         -0.82740       -0.67430        3.35220
H         -0.84200        0.92600        2.53480
H         -2.94120       -0.93190        1.59800
H         -0.89660       -2.81430        0.71350
H         -2.69890        0.09200       -1.14990
