20
gdb 14166	3.19232	2.1972	1.83673	1.3697	73.92	-0.2523	0.0731	0.3254	836.3958	0.17853	-349.000665	-348.993286	-348.992342	-349.031457	30.4
C         -0.14590        1.52330       -0.02960
C         -0.00810        0.00400       -0.01120
O         -1.29600       -0.57990       -0.11220
C          1.13410       -0.60630       -0.90280
C          2.09490       -0.26660        0.27390
C          0.84520       -0.61220        1.13670
C          0.70370       -2.12400        0.86200
C          0.91640       -2.11710       -0.69160
H          0.80230        2.05100        0.08400
H         -0.58480        1.85030       -0.98180
H         -0.81620        1.84350        0.77440
H         -1.77810       -0.12610       -0.81090
H          1.31720       -0.25510       -1.92040
H          2.96780       -0.91310        0.39730
H          2.40400        0.77670        0.32070
H          0.73600       -0.27200        2.16770
H          1.46770       -2.70060        1.39110
H         -0.27800       -2.50700        1.14320
H          0.03900       -2.48670       -1.22510
H          1.78640       -2.70100       -1.00490
