15
gdb 19503	3.31993	2.27971	1.99028	1.6918	67.22	-0.2306	-0.0314	0.1992	740.9412	0.119534	-362.643114	-362.636588	-362.635644	-362.673647	24.968
O         -0.49670        0.38420        0.47560
C         -0.01380        1.24960       -0.21800
C          1.25900        1.97370        0.01120
C          1.49420        2.85930        1.23280
C          0.65550        2.64080        2.43830
C          0.88410        1.42120        2.92590
C          1.91700        0.70160        2.09430
N          2.29040        1.65060        1.01080
H         -0.52380        1.57980       -1.15220
H          1.68910        2.34740       -0.91730
H          1.96450        3.82310        1.05250
H         -0.03110        3.38050        2.82860
H          0.39300        0.96950        3.77910
H          2.82500        0.47450        2.66750
H          1.53650       -0.23590        1.68190
