18
gdb 11083	2.55418	2.15776	2.05936	2.23	67.23	-0.2371	0.0633	0.3004	825.5133	0.152142	-384.912168	-384.903968	-384.903024	-384.944574	30.674
C          0.15610        1.56150       -0.05810
C          0.05260        0.06660        0.06430
C          0.66200       -0.86230       -1.02040
C          1.32610       -1.73100        0.09670
C          0.69490       -0.81630        1.17900
O          1.51920       -0.26210        2.16010
C         -0.75970       -1.16510        1.55220
O         -1.27310       -0.38750        0.44610
H          1.18840        1.86320       -0.25960
H         -0.47280        1.91660       -0.88250
H         -0.17570        2.04970        0.86230
H         -0.09570       -1.36260       -1.62570
H          1.38300       -0.37260       -1.67980
H          1.04570       -2.78710        0.13270
H          2.41640       -1.65300        0.09660
H          2.00350       -0.97350        2.59290
H         -1.05980       -2.21960        1.49800
H         -1.06340       -0.74370        2.51890
