18
gdb 18453	3.27784	1.62393	1.34973	3.244	72.23	-0.2378	-0.0085	0.2293	986.187	0.153528	-347.799981	-347.792205	-347.791261	-347.832434	29.298
C          0.01130        1.38100        0.33110
C         -0.00070       -0.04210       -0.23860
C         -1.36850       -0.69160       -0.12830
C         -1.66420       -2.15020       -0.11720
C         -0.57320       -2.94770        0.61390
C         -0.90020       -2.09970        1.87350
O         -0.57590       -2.19460        3.02370
C         -1.94180       -1.29340        1.15700
H          0.99750        1.84150        0.22110
H         -0.71470        2.01990       -0.18400
H         -0.24360        1.37820        1.39560
H          0.29060       -0.01900       -1.29690
H          0.75580       -0.64410        0.27410
H         -2.14160       -0.11860       -0.64010
H         -2.41590       -2.59490       -0.75660
H         -0.85210       -3.98910        0.80060
H          0.44270       -2.91990        0.21170
H         -2.87130       -0.93370        1.58140
