14
gdb 991	3.92426	3.15025	1.75905	1.2377	59.91	-0.1708	0.064	0.2348	684.8792	0.115587	-320.776316	-320.769025	-320.768081	-320.807481	26.767
N          0.08150        1.42900        0.10300
C          0.01140        0.01930        0.01690
C         -1.08770       -0.81110        0.03080
N         -0.63000       -2.10910       -0.00630
C          0.74620       -2.11870       -0.04130
C          1.17310       -0.80900       -0.02710
N          2.48300       -0.28320       -0.11300
H          0.70260        1.80020       -0.60980
H         -0.82680        1.86130       -0.01460
H         -2.14120       -0.58590        0.06650
H         -1.21200       -2.92520       -0.00690
H          1.30250       -3.04130       -0.07710
H          3.18760       -1.00210       -0.00120
H          2.63380        0.42050        0.60370
