20
gdb 6178	3.4074	1.2863	1.19417	1.1097	71.68	-0.2535	0.0717	0.3252	1137.6138	0.173358	-386.132218	-386.122357	-386.121413	-386.166712	35.765
C         -0.35290        1.40710        0.17120
C          0.17190        0.02750       -0.22440
O          0.97160        0.07190       -1.40360
C          0.96170       -0.59980        0.90940
O          0.23750       -1.00950        2.07360
C          0.93290       -2.01830        1.30820
C          0.05320       -3.03680        0.61730
C          2.14560       -2.59720        2.00710
H          0.47650        2.07980        0.42570
H         -0.91580        1.85190       -0.65390
H         -1.00240        1.33120        1.04790
H         -0.67500       -0.61450       -0.48090
H          1.65420        0.73910       -1.27060
H          1.88170       -0.04730        1.13470
H         -0.85890       -2.58770        0.22290
H          0.59220       -3.51480       -0.20750
H         -0.23850       -3.81990        1.32560
H          1.83860       -3.32700        2.76440
H          2.79730       -3.11050        1.29190
H          2.72140       -1.81230        2.50340
