14
gdb 5160	7.53069	1.21293	1.06948	2.3335	67.39	-0.2043	0.0102	0.2145	1048.3708	0.108604	-378.746816	-378.739725	-378.738781	-378.778738	25.917
N         -0.21660        1.32770        0.05140
C         -0.42740        0.13900       -0.30270
O         -0.23420       -0.86500        0.59860
C         -0.65650       -2.11290        0.24610
C         -1.80870       -2.58410       -0.33450
C         -1.66650       -4.00340       -0.40670
C         -0.45070       -4.33540        0.13610
N          0.16500       -3.16680        0.52940
H         -0.37690        1.95680       -0.73260
H         -0.75360       -0.23260       -1.28040
H         -2.65590       -1.99220       -0.64120
H         -2.39020       -4.69690       -0.80570
H          0.02790       -5.28910        0.28460
H          1.06790       -3.07600        0.96200
