13
gdb 11169	4.23813	1.60971	1.40668	4.1366	61.04	-0.259	0.0083	0.2673	877.5577	0.095579	-398.576323	-398.56932	-398.568375	-398.608012	25.472
N         -0.11600        1.26910       -0.14800
C         -0.00380        0.03230        0.02980
O          1.14900       -0.67600        0.21570
C          0.82390       -2.02010        0.56030
C         -0.63310       -2.15980        0.06500
O         -1.08060       -0.79530        0.06670
C         -0.74820       -2.75860       -1.26090
C         -0.83020       -3.26840       -2.34510
H          0.79590        1.71620       -0.09410
H          1.51520       -2.69650        0.05790
H          0.89030       -2.15210        1.64600
H         -1.25470       -2.70490        0.78020
H         -0.91080       -3.71260       -3.30700
