16
gdb 17198	5.0466	1.61986	1.45484	0.3926	64.71	-0.2482	0.0639	0.312	869.7515	0.130486	-383.651076	-383.644337	-383.643392	-383.681613	26.846
O          0.18480        1.42470       -0.14800
C          0.05840        0.03870       -0.03690
C          0.04540       -0.66960        1.36300
C         -1.42890       -0.16370        1.52810
C         -1.35000       -0.64850        0.03960
C         -0.57730       -1.84750        0.60330
C         -0.12140       -3.13400        0.10210
O         -1.11670       -3.01990        1.15340
H         -0.40490        1.85350        0.48050
H          0.74830       -0.38380       -0.77110
H          0.83520       -0.69340        2.11300
H         -2.06820       -0.74570        2.19290
H         -1.57830        0.90560        1.70260
H         -2.14090       -0.64840       -0.70950
H         -0.49750       -3.52120       -0.84360
H          0.83660       -3.54140        0.42160
