15
gdb 2490	4.81089	3.02856	2.58943	1.0451	59.76	-0.2369	0.0753	0.3122	586.1417	0.125797	-308.462932	-308.457154	-308.456209	-308.492031	23.363
O         -0.08570        1.43360        0.02120
C         -0.04270        0.04850        0.00690
C          0.41220       -0.75240       -1.24950
C         -0.55300       -1.82980       -0.75780
C         -0.48690       -1.84340        0.77910
C          0.51800       -0.77430        1.20510
C         -1.35070       -0.83960        0.05530
H          0.81830        1.76650       -0.01320
H          0.04420       -0.27660       -2.16270
H          1.47840       -0.99150       -1.34880
H         -0.92870       -2.68370       -1.30590
H         -0.81480       -2.70720        1.34240
H          1.58860       -1.01440        1.20790
H          0.23030       -0.31520        2.15490
H         -2.40310       -0.60440        0.10270
