22
gdb 10861	3.33303	1.51636	1.29791	1.6558	77.28	-0.2556	0.0623	0.3179	1058.8825	0.201857	-350.234151	-350.225739	-350.224795	-350.266382	33.106
C         -0.03700        1.56750        0.02830
C          0.02520        0.03760        0.01050
C          0.73250       -0.49040       -1.24980
C          0.81110       -2.02490       -1.27150
C          1.47940       -2.58750       -0.00660
O          2.88380       -2.33280        0.01020
C          0.78630       -2.05520        1.25800
C          0.70780       -0.52060        1.27150
H          0.97060        2.00050        0.04330
H         -0.55060        1.95660       -0.85740
H         -0.56800        1.93540        0.91270
H         -1.00640       -0.34700       -0.00420
H          0.22050       -0.12910       -2.14930
H          1.74640       -0.06390       -1.29620
H         -0.20390       -2.43770       -1.34470
H          1.36380       -2.37140       -2.15090
H          1.40890       -3.68060       -0.02040
H          3.01740       -1.38000        0.02280
H         -0.22980       -2.46940        1.30140
H          1.32170       -2.42280        2.13960
H          1.72050       -0.09550        1.34800
H          0.17820       -0.18080        2.16920
