11
gdb 21094	5.49872	1.80071	1.44237	5.4135	57.31	-0.2508	-0.1012	0.1496	799.8326	0.071099	-426.818624	-426.811876	-426.810932	-426.850363	23.237
C         -0.10430        1.42420       -0.01690
N          0.02910       -0.02750        0.01020
N          0.66900       -0.61660       -1.02600
N          0.72130       -1.88080       -1.03920
C         -0.02520       -2.56470       -0.04410
O         -0.53150       -3.63370       -0.23760
N         -0.07490       -1.91200        1.21560
N         -0.11830       -0.64740        1.20360
H          0.64790        1.82390       -0.69670
H         -1.10190        1.70120       -0.36680
H          0.04810        1.80020        0.99460
