17
gdb 11728	5.10808	1.32999	1.21089	2.6728	69.69	-0.2406	-0.0193	0.2213	1026.024	0.141954	-363.845588	-363.837877	-363.836933	-363.877824	28.78
C          0.15720        1.49420        0.21650
C         -0.13600        0.01640       -0.07670
C          0.55310       -0.46670       -1.32030
C          0.19480       -0.09590       -2.77540
C          0.53060       -1.57480       -3.13420
O          0.34920       -2.23760       -4.11460
C          0.94190       -1.88870       -1.71840
N          1.93510       -0.89210       -1.26210
H          1.23090        1.65580        0.35210
H         -0.18080        2.13800       -0.60250
H         -0.35270        1.81870        1.12810
H          0.19610       -0.60160        0.76400
H         -1.21670       -0.13670       -0.18460
H         -0.86790        0.09380       -2.95850
H          0.78440        0.70440       -3.23300
H          0.87820       -2.83070       -1.18660
H          2.50220       -0.53020       -2.02710
