15
gdb 11208	3.8824	1.53021	1.42665	2.4341	61.11	-0.2397	-0.0408	0.1989	900.721	0.118619	-399.824021	-399.816658	-399.815714	-399.856342	26.545
O          0.57100       -0.19530        0.33840
C          0.26510        0.96880        0.38080
C          1.18800        2.10280       -0.05520
C          1.44250        3.10070        1.08790
C          2.77810        2.63690        1.68390
O          3.27260        3.03400        2.70360
C          3.35280        1.57490        0.74920
N          2.52240        1.65450       -0.45580
H         -0.74440        1.29180        0.72690
H          0.67630        2.59500       -0.89590
H          1.57110        4.11860        0.70620
H          0.66160        3.13150        1.85220
H          4.40780        1.77610        0.53820
H          3.29410        0.60750        1.27440
H          2.45430        0.74890       -0.90810
