17
gdb 17685	4.32864	1.39482	1.33648	3.302	64.83	-0.229	0.0562	0.2852	975.1186	0.141565	-400.943118	-400.935122	-400.934178	-400.97533	30.504
O         -0.13710        1.38370       -0.05770
C          0.00410       -0.01090        0.01750
C         -0.43520       -0.73560        1.27270
C         -1.30810       -0.75280        0.03000
O         -2.45350        0.04800        0.02790
C         -1.47990       -2.01460       -0.75580
C         -2.80790       -2.66930       -0.83300
N         -2.23810       -1.98920       -2.01340
H          0.38130        1.78740        0.64580
H          0.83650       -0.41410       -0.55650
H          0.10220       -1.63310        1.56100
H         -0.80010       -0.12780        2.09440
H         -2.13950        0.95910       -0.06900
H         -0.58680       -2.63630       -0.78550
H         -2.87560       -3.75050       -0.91290
H         -3.63120       -2.18810       -0.31470
H         -2.67790       -1.07330       -2.08810
