15
gdb 8258	5.26636	1.1083	0.98354	3.9577	63.32	-0.2559	-0.0387	0.2172	1131.7391	0.117546	-399.828638	-399.820629	-399.819685	-399.862822	27.743
O          0.13130       -0.16120       -0.42690
C          0.04020        1.01370       -0.18210
C          1.21410        1.94770        0.01700
C          1.30920        2.95150       -1.13970
C          2.58050        3.85160       -1.18580
C          2.89560        3.14420       -2.52880
O          3.76080        3.20310       -3.35710
N          1.75150        2.38670       -2.41970
H         -0.95730        1.50920       -0.11520
H          1.06030        2.50700        0.94930
H          2.13370        1.36080        0.09070
H          0.37330        3.51700       -1.22630
H          2.39910        4.92410       -1.26980
H          3.31190        3.65990       -0.39840
H          1.37210        1.65470       -3.00270
