19
gdb 9290	3.90603	1.03224	0.87673	3.9342	70.26	-0.2468	0.0366	0.2834	1330.716	0.163729	-402.220914	-402.211168	-402.210224	-402.256543	33.393
C         -0.32190        1.46840        0.12540
O         -0.08040        0.07960        0.16980
C         -1.24160       -0.73880        0.04400
C         -1.75950       -0.80070       -1.39280
C         -0.82690       -2.11970        0.55230
N         -0.30480       -2.04980        1.90240
C         -0.78790       -2.79240        2.93050
O         -1.66260       -3.62990        2.84420
H          0.62740        1.96650        0.33780
H         -0.67580        1.80370       -0.85950
H         -1.06120        1.77560        0.88120
H         -2.02910       -0.34320        0.70670
H         -2.07060        0.18410       -1.75120
H         -0.98170       -1.17990       -2.06310
H         -2.62720       -1.46480       -1.45540
H         -1.68120       -2.79890        0.57110
H         -0.07180       -2.53510       -0.12840
H          0.38800       -1.34040        2.08280
H         -0.27910       -2.54850        3.88460
