12
gdb 19352	4.59667	1.82514	1.54337	2.7901	55.41	-0.2637	-0.0512	0.2125	781.6903	0.081404	-418.379152	-418.372851	-418.371907	-418.409735	23.478
O         -0.15880        0.03150        0.07120
C         -0.01370        1.23060        0.05620
C          1.30210        1.87650       -0.03540
O          1.45980        3.25040        0.33430
C          1.76610        2.91240       -0.99730
C          3.18310        2.20990       -1.04350
O          3.69010        2.16650        0.28510
C          2.72220        1.19570       -0.09780
H         -0.86520        1.94240        0.09470
H          1.23460        3.40500       -1.80290
H          3.87190        2.16910       -1.87690
H          2.93980        0.14220        0.01030
