16
gdb 11579	6.11947	0.8321	0.78092	3.7304	79.57	-0.2493	-0.0421	0.2072	1464.7519	0.128537	-346.585799	-346.577031	-346.576086	-346.620613	30.141
C         -0.02440        1.45300        0.32210
C          0.04390        0.00080       -0.11130
O          1.08330       -0.54080       -0.42960
C         -1.21880       -0.70400       -0.12150
C         -2.27260       -1.29850       -0.13180
C         -3.50600       -2.01550       -0.15000
C         -3.73930       -3.08790       -1.21080
C         -3.52090       -3.49910        0.20840
H          0.97550        1.88870        0.29520
H         -0.69540        2.01230       -0.33870
H         -0.43820        1.52530        1.33370
H         -4.38070       -1.44640        0.14950
H         -4.73910       -3.14920       -1.62480
H         -2.93900       -3.25400       -1.92140
H         -2.57080       -3.94740        0.47160
H         -4.36800       -3.84830        0.78760
