20
gdb 17658	3.94212	1.41024	1.36776	1.8727	74.15	-0.2424	0.0808	0.3232	1015.5581	0.177042	-348.968355	-348.960144	-348.9592	-349.001551	30.881
C          0.02820        1.60910       -0.11680
C          0.00630        0.08270       -0.05890
C          1.08920       -0.56090       -0.97150
O          1.92570       -0.87670        0.15800
C          0.89710       -0.48020        1.08540
C         -1.36600       -0.55040       -0.16220
C         -2.60880        0.04310        0.45680
C         -2.46870       -0.01570       -1.04430
H          1.05780        1.97070       -0.03490
H         -0.37850        1.98570       -1.06100
H         -0.54330        2.05500        0.70360
H          0.75920       -1.46360       -1.50390
H          1.58930        0.10910       -1.68180
H          1.26210        0.24670        1.82160
H          0.46780       -1.34110        1.61610
H         -1.31800       -1.63630       -0.11520
H         -3.30810       -0.63080        0.93920
H         -2.54080        1.01680        0.92840
H         -2.30770        0.91900       -1.56940
H         -3.07170       -0.73010       -1.59380
