16
gdb 18032	4.01432	2.13923	1.49393	4.0427	65.68	-0.2354	0.0232	0.2586	825.9598	0.134337	-379.896768	-379.890496	-379.889552	-379.927034	24.588
C          0.04310        1.50550       -0.08410
O          1.50400        1.37930        0.07040
C          1.32720        0.10130        0.54560
N          2.02970       -0.55980        1.34200
C          1.31500       -1.71580        1.90650
C         -0.12460       -1.96240        1.38860
N         -0.84210       -0.69150        1.14010
C         -0.09830       -0.02730        0.09090
H         -0.37460        2.09270        0.73730
H         -0.21870        1.92910       -1.05530
H          1.90630       -2.62470        1.74830
H          1.28900       -1.54790        2.99000
H         -0.07820       -2.57880        0.47270
H         -0.67680       -2.53630        2.13840
H         -1.79380       -0.89550        0.85270
H         -0.17680       -0.51040       -0.89750
