17
gdb 6509	2.9684	1.82153	1.40278	3.6547	69.74	-0.2748	0.0173	0.2921	937.5135	0.139782	-363.867564	-363.858728	-363.857783	-363.900188	32.775
C         -0.03640        1.51580        0.07460
C         -0.00420        0.00050        0.00570
C         -1.24750       -0.62730       -0.59540
C          1.32220       -0.67910       -0.23720
C          0.69450       -0.72470        1.15090
O          1.23070        0.07650        2.16250
C          0.16530       -1.98680        1.62400
N         -0.23290       -2.99850        2.02020
H          0.85130        1.91920        0.56270
H         -0.09980        1.93100       -0.93710
H         -0.91350        1.85880        0.63340
H         -1.37200       -0.29060       -1.63040
H         -1.19940       -1.71890       -0.59930
H         -2.14210       -0.33340       -0.03630
H          1.34520       -1.59440       -0.81840
H          2.20780       -0.05730       -0.31580
H          2.03080       -0.34850        2.49260
