14
gdb 5213	8.87961	0.97763	0.88554	0.8142	76.07	-0.2137	0.0006	0.2142	1256.756	0.10729	-345.412567	-345.404944	-345.404	-345.446802	26.551
C         -0.02720        1.47270        0.01070
C         -0.00360        0.01830        0.00300
C          0.02170       -1.18780       -0.00350
C          0.02520       -2.60210       -0.01120
C          1.11500       -3.42970       -0.02200
O          0.73360       -4.72880       -0.02690
C         -0.62780       -4.74540       -0.01900
C         -1.11980       -3.48380       -0.00900
H          0.98800        1.88450        0.00310
H         -0.55150        1.86870       -0.86650
H         -0.53450        1.85960        0.90190
H          2.17530       -3.24160       -0.02730
H         -1.08260       -5.72190       -0.02160
H         -2.15600       -3.18660       -0.00100
