20
gdb 12729	2.61913	2.10726	1.72198	1.2742	74.35	-0.2474	0.0748	0.3222	895.624	0.176964	-348.98252	-348.97444	-348.973496	-349.014513	31.497
C          0.09690        1.58350       -0.04120
C          0.04540        0.07310        0.02270
C         -1.34330       -0.57500        0.32950
C         -0.76700       -1.21730        1.62620
C          0.65420       -0.80320        1.19060
C          1.28800       -1.74110        0.12260
C          0.88040       -0.73290       -0.99410
O          0.15230       -1.19830       -2.10980
H          1.12930        1.94960       -0.08310
H         -0.42490        1.95250       -0.93290
H         -0.38300        2.03720        0.83330
H         -2.14850        0.14610        0.48970
H         -1.66360       -1.28370       -0.43610
H         -1.09550       -0.69240        2.52790
H         -0.93850       -2.28830        1.77320
H          1.33500       -0.39980        1.94200
H          2.36140       -1.92120        0.21980
H          0.77800       -2.70540        0.03300
H          1.75020       -0.14040       -1.31790
H          0.74110       -1.72840       -2.65600
