11
gdb 21982	5.49819	1.71123	1.30505	6.275	56.08	-0.2825	-0.0766	0.2059	830.7642	0.074109	-430.6521	-430.64606	-430.645116	-430.682885	21.646
O         -0.06580        0.02830        0.00440
N         -0.03970        1.25550        0.00640
O          0.96200        1.95010        0.00290
C         -1.33580        1.91040        0.01720
N         -1.41950        3.23330        0.02140
N         -2.73730        3.45020        0.03110
C         -3.48130        2.31090        0.03310
C         -2.58710        1.26450        0.02400
H         -3.06770        4.40170        0.03590
H         -4.55910        2.33750        0.04060
H         -2.78200        0.20730        0.02250
