20
gdb 7664	3.87387	1.71386	1.40945	1.4198	75.53	-0.253	0.0764	0.3293	961.233	0.176541	-348.952724	-348.944617	-348.943673	-348.98437	32.264
C         -0.13020        1.62040        0.19650
C          0.02760        0.10690        0.12980
C          1.14220       -0.56810       -0.73670
C          2.17030       -0.11890        0.34690
C          0.94000       -0.66860        1.13840
C          0.93250       -1.86330        0.13610
C         -0.29190       -2.75410       -0.05130
O          2.06210       -2.70740        0.30550
H          0.80710        2.16430        0.32890
H         -0.59880        1.99080       -0.72240
H         -0.78970        1.89390        1.02800
H         -0.96650       -0.32580        0.00110
H          1.25490       -0.51570       -1.82280
H          3.08730       -0.69750        0.41610
H          2.36680        0.94890        0.42500
H          0.82300       -0.73310        2.22250
H         -1.23380       -2.21660       -0.16050
H         -0.16650       -3.36950       -0.95200
H         -0.37960       -3.43440        0.80130
H          2.06720       -3.34010       -0.41980
