18
gdb 18648	2.71177	2.27706	1.7892	3.024	66.03	-0.246	0.0592	0.3051	825.3907	0.155581	-384.932185	-384.924791	-384.923847	-384.96349	29.088
O         -0.19780        1.43700       -0.21130
C         -0.10270        0.04520       -0.02710
C         -0.45920       -0.63430        1.27290
C         -1.17880        0.16070        2.35860
C         -2.37280        0.84940        1.66390
C         -2.65040        0.05810        0.35380
O         -3.07510        0.87450       -0.72310
C         -1.37650       -0.73750        0.06350
H          0.50860        1.86340        0.28470
H          0.70390       -0.41400       -0.59800
H          0.16640       -1.46620        1.58070
H         -1.52520       -0.54020        3.12610
H         -0.52340        0.87810        2.86640
H         -3.25780        0.88910        2.30430
H         -2.12280        1.87610        1.39070
H         -3.47120       -0.65050        0.50990
H         -2.33620        1.46520       -0.91520
H         -1.46870       -1.64230       -0.52670
