18
gdb 7353	4.18206	1.13092	0.94823	3.0755	65.41	-0.2649	0.0053	0.2702	1252.5701	0.151179	-422.11963	-422.110062	-422.109118	-422.154861	33.157
C         -0.16100        1.44760        0.04310
C         -0.02810       -0.06210        0.03390
O         -1.36290       -0.61830       -0.01220
C         -1.44610       -1.95040       -0.01880
O         -0.49550       -2.69920        0.01230
C         -2.88560       -2.45240       -0.06880
C         -3.59560       -1.99630       -1.35020
O         -2.88680       -3.85450        0.03430
H          0.83210        1.90490        0.07700
H         -0.67250        1.80050       -0.85670
H         -0.72600        1.78500        0.91630
H          0.53100       -0.42220       -0.83500
H          0.47540       -0.43830        0.92940
H         -3.40760       -2.01570        0.79700
H         -3.06810       -2.37290       -2.23180
H         -4.60940       -2.40360       -1.35960
H         -3.64860       -0.90600       -1.40310
H         -1.95440       -4.11760        0.05310
