17
gdb 18270	4.37193	1.68835	1.38636	2.5829	64.86	-0.241	0.0736	0.3145	920.5365	0.143036	-400.961652	-400.954233	-400.953289	-400.993649	27.251
C          0.09710        1.31560        0.14630
O          0.02960       -0.09340        0.01980
C          0.60660       -0.57920       -1.14210
O          2.01470       -0.34660       -1.14010
C          2.71200       -1.44960       -1.70860
C          1.76330       -2.62890       -1.62710
N          1.23810       -2.81380       -0.26210
C          0.44010       -2.07940       -1.26350
H          1.13230        1.65960        0.24960
H         -0.35790        1.81720       -0.72210
H         -0.46520        1.58100        1.04410
H          0.16010       -0.07230       -2.02070
H          2.97510       -1.25090       -2.75920
H          3.63460       -1.59650       -1.13710
H          1.88470       -3.47670       -2.29240
H          0.85930       -3.75380       -0.17260
H         -0.49670       -2.48510       -1.62740
