12
gdb 16782	3.78903	2.15975	1.49028	1.609	57.3	-0.269	-0.041	0.2281	777.8767	0.085507	-414.678067	-414.671985	-414.671041	-414.70834	23.076
N         -0.12870        1.29780       -0.05340
C         -0.02260        0.03740        0.00700
N          1.11470       -0.77380        0.09350
C          0.87230       -2.14040       -0.03480
O          1.70760       -3.00360       -0.10560
C         -0.63990       -2.27500       -0.08040
O         -1.23900       -1.75750        1.11480
C         -1.18820       -0.91070       -0.04010
H          0.77930        1.76520       -0.01700
H          2.04980       -0.42040        0.23290
H         -1.10590       -3.13760       -0.54180
H         -2.13220       -0.59750       -0.46860
