18
gdb 16011	4.12623	1.83424	1.47066	1.0046	75.24	-0.2212	0.023	0.2442	897.98	0.155232	-347.798445	-347.791503	-347.790559	-347.82931	27.879
C         -0.01960        1.49650        0.05270
C          1.31570        0.79330       -0.00540
C          0.01800       -0.00350       -0.02700
O         -0.34710       -0.64030        1.16790
C         -0.11400       -2.04340        1.13080
C         -0.98500       -2.71330        0.06480
C         -0.87570       -1.95180       -1.23030
C         -0.38850       -0.71120       -1.26070
H         -0.32700        1.90770        1.00730
H         -0.36140        2.04820       -0.81610
H          1.90310        0.85790       -0.91470
H          1.88910        0.73820        0.91280
H          0.94880       -2.24510        0.92540
H         -0.34480       -2.41410        2.13300
H         -0.66440       -3.75420       -0.07150
H         -2.03020       -2.75420        0.40140
H         -1.19230       -2.44190       -2.14640
H         -0.26850       -0.17140       -2.19590
