18
gdb 15060	2.91709	1.47417	1.04372	1.5497	73.73	-0.2566	0.0457	0.3023	1131.1715	0.152295	-347.750846	-347.742051	-347.741106	-347.784343	32.464
O          0.02300        1.37550        0.08180
C         -0.06180       -0.03110        0.12820
C         -1.50810       -0.55000       -0.06270
C         -2.03550       -0.05560       -1.33580
C         -2.40880        0.37540       -2.39550
C         -1.57080       -2.06770        0.03070
C         -1.63890       -2.73280        1.38300
C         -2.83660       -2.75630        0.46540
H         -0.35050        1.65260       -0.76380
H          0.58740       -0.50580       -0.62480
H          0.29430       -0.33480        1.11690
H         -2.11290       -0.12220        0.74880
H         -2.77070        0.74020       -3.32510
H         -0.98580       -2.57660       -0.73030
H         -1.08200       -3.65070        1.53390
H         -1.68750       -2.09510        2.25990
H         -3.68650       -2.13410        0.72570
H         -3.10280       -3.69100       -0.01490
