14
gdb 23738	3.31435	2.21519	1.33872	1.2461	66.25	-0.2578	-0.0172	0.2406	854.7008	0.108266	-386.754998	-386.748303	-386.747358	-386.785961	24.918
C         -0.02730        1.52530        0.02480
C         -0.00630        0.02260        0.00220
C         -0.03880       -0.72260       -1.17830
N         -0.02180       -2.05570       -1.24810
C          0.03020       -2.72360       -0.09400
C          0.06700       -2.10710        1.15390
C          0.04760       -0.72340        1.17670
F          0.08110       -0.08010        2.34650
H          0.86580        1.92980        0.51260
H         -0.07270        1.92610       -0.99070
H         -0.89100        1.90420        0.58130
H         -0.08140       -0.19400       -2.12910
H          0.04360       -3.80840       -0.16200
H          0.10900       -2.67340        2.07610
