19
gdb 16244	3.00729	2.02147	1.553	2.2728	70.42	-0.2443	0.0714	0.3158	897.0939	0.166721	-365.039049	-365.031308	-365.030364	-365.071339	29.359
C          0.26870        1.66370       -0.12520
C          0.00640        0.16400        0.06280
C          0.62270       -0.66610       -1.07660
O          1.99810       -0.78170       -0.73620
C          2.08030       -0.95990        0.67590
C          0.76150       -0.43340        1.25420
C          0.59790        0.03030        2.64890
N          0.09630       -1.29850        2.24310
H          1.33550        1.85010       -0.28160
H         -0.27070        2.04540       -0.99850
H         -0.05270        2.24110        0.74680
H         -1.07040       -0.01750        0.15510
H          0.14560       -1.65800       -1.13920
H          0.56060       -0.18660       -2.05760
H          2.19640       -2.02010        0.94020
H          2.95870       -0.41070        1.03100
H          1.44200        0.01010        3.33430
H         -0.12040        0.82200        2.84990
H         -0.91380       -1.25940        2.12400
