12
gdb 5285	5.28473	1.64009	1.25165	3.9271	58.02	-0.2596	-0.0424	0.2172	875.0307	0.085248	-414.723191	-414.716218	-414.715274	-414.754885	24.407
N         -0.13090        1.32730        0.01910
C          0.04480       -0.02370        0.01150
O          1.13220       -0.57090        0.00220
C         -1.20040       -0.81640        0.01540
C         -1.42990       -2.15510        0.01120
N         -2.79530       -2.38970        0.01850
C         -3.31880       -1.20590        0.02580
O         -2.42670       -0.19170        0.02590
H          0.68700        1.91280        0.01340
H         -1.04460        1.74520        0.02250
H         -0.70430       -2.95140        0.00330
H         -4.36310       -0.93520        0.03320
