15
gdb 1633	4.74639	2.05878	1.46222	2.0631	61.15	-0.2483	-0.0133	0.235	814.9669	0.124416	-341.874216	-341.866219	-341.865275	-341.906845	27.389
C         -0.08620        1.49760        0.00960
N         -0.00640        0.03870        0.00540
C          0.09020       -0.63700        1.22170
N          0.11080       -0.01920        2.33280
C         -0.02260       -0.71650       -1.17110
C         -0.12900        0.06740       -2.46420
O          0.04480       -1.92900       -1.15680
H          0.75580        1.94280       -0.52810
H         -1.01980        1.84540       -0.44190
H         -0.05320        1.81740        1.05010
H          0.14190       -1.71460        1.07040
H          0.18490       -0.68500        3.09910
H          0.71090        0.75880       -2.58400
H         -0.12970       -0.64700       -3.28630
H         -1.04750        0.66160       -2.49810
