22
gdb 13632	2.80813	1.56451	1.18067	1.1503	79.01	-0.2449	0.0805	0.3255	1133.5263	0.198378	-350.187024	-350.177226	-350.176282	-350.221669	35.574
C         -0.11840        1.51510       -0.17900
O         -0.07630        0.14330        0.13790
C         -1.31600       -0.54260       -0.01170
C         -1.61190       -0.83460       -1.48870
C         -1.27150       -1.83640        0.78840
C          0.03280       -2.48990        1.17990
C         -0.88600       -1.94280        2.24760
C         -0.49400       -0.75560        3.10120
H          0.86620        1.92830        0.05410
H         -0.32740        1.69850       -1.24270
H         -0.87610        2.04720        0.41730
H         -2.12010        0.09970        0.38920
H         -2.58190       -1.33070       -1.59400
H         -1.64480        0.08270       -2.08330
H         -0.83980       -1.49000       -1.90300
H         -2.06390       -2.51470        0.48180
H          0.13610       -3.56370        1.06670
H          0.93230       -1.92170        0.97350
H         -1.45260       -2.69630        2.79110
H          0.09920       -0.03990        2.53080
H         -1.37820       -0.23390        3.48680
H          0.09630       -1.08130        3.96530
