15
gdb 10577	2.65715	1.95873	1.35232	1.2761	75.36	-0.2348	0.0126	0.2475	941.1591	0.115236	-325.417913	-325.409429	-325.408485	-325.450306	31.613
C         -0.17280        1.44590       -0.08420
N          0.04630        0.00730        0.00600
C          1.38930       -0.48250       -0.18660
C          0.76680       -0.52280        1.19510
C          1.28970        0.38580        2.18890
C          1.70380        1.13760        3.03080
C          0.25930       -1.77140        1.71390
C         -0.14280       -2.81640        2.14910
H          0.66360        2.04980        0.29450
H         -0.34030        1.69390       -1.13650
H         -1.07260        1.70650        0.47980
H          1.48890       -1.41390       -0.73670
H          2.19600        0.23690       -0.32100
H          2.07620        1.79390        3.77810
H         -0.50830       -3.73620        2.53360
