16
gdb 16931	3.57042	2.15186	1.90761	2.6342	62.81	-0.2331	-0.0185	0.2145	760.6319	0.133028	-383.772271	-383.766128	-383.765184	-383.802514	24.527
O          0.00270        0.01170        0.07010
C         -0.02830        1.21080        0.01560
C         -1.26080        2.13460       -0.01930
C         -0.56500        3.50630        0.06340
C          0.03180        3.72320        1.47400
C          1.26740        2.77320        1.43480
C          1.15080        2.19580       -0.00120
O          0.60690        3.28970       -0.74750
H         -1.78220        2.01620       -0.97430
H         -1.95850        1.89970        0.78810
H         -1.13230        4.34340       -0.34160
H          0.33530        4.76370        1.60560
H         -0.67580        3.47420        2.26860
H          2.20300        3.32680        1.53590
H          1.24600        1.99550        2.20210
H          2.06490        1.81980       -0.45590
