17
gdb 4168	2.45839	1.75493	1.11046	1.1961	68.04	-0.2452	0.0012	0.2465	1076.33	0.139996	-400.935988	-400.927248	-400.926304	-400.969775	31.207
C          0.02780        1.56900        0.12890
C         -0.08490        0.05350        0.29140
C         -1.46500       -0.50940        0.06290
N         -2.41840        0.30440       -0.19040
O         -3.64370       -0.35690       -0.39040
C         -1.66180       -1.98350        0.17580
C         -0.90000       -2.93610       -0.65470
O         -0.56790       -2.73610        0.71360
H          1.05740        1.89000        0.31120
H         -0.26000        1.88260       -0.87790
H         -0.62690        2.09090        0.83120
H          0.61160       -0.45300       -0.39060
H          0.24080       -0.25400        1.29290
H         -4.25220        0.37960       -0.50760
H         -2.64390       -2.29220        0.52290
H         -1.34690       -3.89860       -0.89840
H         -0.17350       -2.56170       -1.37420
