15
gdb 6362	4.34398	1.2451	0.97982	3.4293	60.98	-0.2512	0.0081	0.2593	1120.8174	0.1194	-433.160948	-433.152368	-433.151424	-433.194424	30.803
N          0.17430        1.20890       -0.06400
C         -0.34770       -0.00010        0.35430
O         -0.61110       -0.23470        1.51800
N         -0.49220       -0.91430       -0.67730
C         -0.95120       -2.23220       -0.60840
N         -0.88270       -2.91890       -1.67700
C         -1.50910       -2.74210        0.71870
O         -2.04910       -4.04170        0.57280
H          0.11840        1.93150        0.63640
H          0.02260        1.51700       -1.01140
H         -0.11870       -0.68890       -1.58900
H         -1.23220       -3.85710       -1.47820
H         -0.70350       -2.80360        1.45410
H         -2.23350       -2.02810        1.12310
H         -2.91750       -3.95940        0.16570
