18
gdb 10751	2.70695	1.73681	1.50129	2.2149	67.55	-0.2475	-0.0259	0.2216	947.7809	0.150399	-384.929651	-384.92057	-384.919625	-384.963531	32.3
C          0.04250        1.56030       -0.32950
C          0.01670        0.04680       -0.00960
C          0.57990       -0.23770        1.38740
C         -1.44110       -0.39530       -0.10870
O         -2.09900       -0.79610        0.81760
C          0.85820       -0.67530       -1.05940
C          0.54580       -2.00730       -1.59000
O          0.30900       -0.82810       -2.36860
H          1.07310        1.92950       -0.31110
H         -0.36970        1.76050       -1.32310
H         -0.53400        2.12660        0.40830
H         -0.00620        0.28160        2.14920
H          0.54460       -1.30610        1.61690
H          1.61900        0.09880        1.46080
H         -1.87740       -0.29240       -1.12500
H          1.90670       -0.36750       -1.05580
H          1.34740       -2.64940       -1.95070
H         -0.34770       -2.53020       -1.25070
