17
gdb 3272	3.55986	3.03433	1.84726	0.9774	60.26	-0.2436	0.0839	0.3276	712.4139	0.150141	-346.842403	-346.835695	-346.834751	-346.87358	24.847
C          0.01970        1.47530        0.21420
C          1.38830        2.10590       -0.06790
O          2.34610        2.02920        0.97170
C          2.47670        0.82590        1.71220
C          2.11920       -0.48470        1.01170
O          0.73200       -0.76460        1.00880
C         -0.01480       -0.04680        0.04720
H         -0.32610        1.75640        1.21570
H         -0.69470        1.90070       -0.50270
H          1.79150        1.67110       -0.99890
H          1.26760        3.17910       -0.24850
H          3.52990        0.78300        2.01610
H          1.86980        0.87700        2.62970
H          2.53350       -0.51200       -0.00930
H          2.58250       -1.29950        1.57870
H         -1.04130       -0.41370        0.14500
H          0.33450       -0.30210       -0.96930
