17
gdb 2183	3.41178	2.57698	1.77682	2.803	64.22	-0.2358	-0.0148	0.221	768.4239	0.147105	-309.736479	-309.728874	-309.72793	-309.768068	27.943
C         -0.25530        1.53680       -0.09730
C          0.02200        0.03790       -0.03230
C          1.23110       -0.40990       -0.91750
C          2.05430       -0.52200        0.37570
O          3.22670       -0.52980        0.62000
C          0.79270       -0.45520        1.25030
C          0.83220        0.34270        2.54600
H          0.65970        2.12330        0.04510
H         -0.66900        1.80840       -1.07390
H         -0.97250        1.84790        0.66900
H         -0.89870       -0.51830       -0.22260
H          1.09130       -1.38570       -1.39380
H          1.60160        0.29540       -1.66630
H          0.49020       -1.49000        1.46230
H          1.12720        1.38150        2.37350
H         -0.14270        0.34430        3.04400
H          1.56230       -0.09650        3.23230
