18
gdb 6889	3.20076	1.46503	1.35558	1.1825	64.13	-0.2359	0.0559	0.2918	995.586	0.151767	-422.048248	-422.039263	-422.038319	-422.081183	33.722
C          0.01060        1.59730       -0.14460
C         -0.00730        0.09670        0.01980
O         -1.15420       -0.53950       -0.48770
C          1.27560       -0.69720       -0.04530
O          2.48920       -0.01660       -0.14650
C          0.50600       -0.59940        1.26520
C          1.16260        0.12910        2.41710
O          2.48360       -0.37210        2.68720
H          0.98490        2.01350        0.11580
H         -0.17570        1.85150       -1.19520
H         -0.76830        2.07410        0.45870
H         -1.15250       -0.42200       -1.44490
H          1.22700       -1.64660       -0.57910
H          2.95680       -0.16390        0.68910
H         -0.06700       -1.48280        1.53290
H          1.30930        1.18750        2.19580
H          0.54000        0.06770        3.31950
H          2.40190       -1.30850        2.89800
