19
gdb 14129	3.61382	1.57293	1.41599	2.183	71.03	-0.248	0.0692	0.3172	973.3128	0.165295	-365.021559	-365.013284	-365.01234	-365.054184	31.277
C          0.06150        1.45850       -0.21120
C          0.02040       -0.02840        0.14550
O          0.71160       -0.29710        1.36440
C         -1.39110       -0.55740        0.19180
C         -2.42110       -0.32420        1.31540
C         -2.99170       -1.75680        1.04300
C         -1.94690       -1.92990       -0.06720
N         -2.05670       -0.87050       -1.06820
H          1.09510        1.81380       -0.24220
H         -0.40210        1.63250       -1.18640
H         -0.48430        2.05410        0.53230
H          0.55710       -0.59570       -0.62290
H          0.42320        0.35290        2.01380
H         -1.96640       -0.25440        2.30660
H         -3.09870        0.52540        1.17710
H         -2.83930       -2.42890        1.89030
H         -4.03740       -1.82640        0.72420
H         -1.44450       -2.84750       -0.35230
H         -2.99760       -0.48440       -1.13180
