14
gdb 19036	4.21815	2.20984	1.87484	3.3852	60.24	-0.2388	-0.0143	0.2245	715.6	0.10842	-382.522236	-382.516568	-382.515624	-382.551925	22.868
O         -0.00260        0.00290       -0.11350
C         -0.02040        1.19950        0.01830
C         -1.27850        2.08520        0.12630
C         -0.70190        3.44120        0.50000
O         -0.06820        3.30000        1.81850
C          1.18780        3.18270        1.16850
C          0.69580        3.55000       -0.17580
C          1.16520        2.11590        0.05400
H         -1.78190        2.11650       -0.84800
H         -1.97730        1.69040        0.86710
H         -1.37280        4.29880        0.46530
H          2.08620        3.41460        1.72670
H          1.04240        4.22810       -0.94210
H          2.12300        1.77290       -0.31570
