13
gdb 23912	2.9301	1.94909	1.65154	2.3378	46.77	-0.2884	0.0756	0.364	799.441	0.090405	-530.091226	-530.083646	-530.082702	-530.123438	27.271
C         -0.08450        1.52550       -0.10440
C          0.00380        0.01950       -0.06610
C          0.82980       -0.75100       -1.00450
O          1.24050       -0.54750        0.35190
C         -1.20640       -0.67040        0.54370
F         -2.31330       -0.37050       -0.15810
F         -1.07930       -1.99880        0.56330
F         -1.40690       -0.25870        1.80370
H          0.82670        1.93860       -0.54080
H         -0.94380        1.84670       -0.69930
H         -0.19920        1.92360        0.90760
H          0.55990       -1.77230       -1.25940
H          1.40420       -0.20920       -1.75370
