18
gdb 18040	3.76694	2.06118	1.49439	2.0214	72.3	-0.2402	0.0128	0.253	864.8021	0.156753	-347.798955	-347.792339	-347.791395	-347.829749	26.119
C          0.04730        1.57080        0.11080
O          1.46780        1.56090       -0.14600
C          1.41250        0.15080       -0.50760
C          2.46300       -0.71330        0.10720
C          2.14990       -1.72070        0.92290
C          0.73860       -1.98640        1.38820
C         -0.07940       -0.68450        1.40660
C         -0.02360        0.03000        0.05370
H         -0.19430        2.04120        1.07140
H         -0.50690        2.08220       -0.68860
H          1.44840        0.05540       -1.60440
H          3.49370       -0.52290       -0.18110
H          2.93230       -2.37750        1.29560
H          0.25670       -2.73520        0.74240
H          0.75770       -2.42980        2.39020
H         -1.11780       -0.87980        1.69490
H          0.34960       -0.03060        2.17480
H         -0.75400       -0.38780       -0.64360
