18
gdb 4540	3.87323	1.63812	1.17311	1.6297	76.74	-0.1777	0.0578	0.2355	1040.3809	0.154315	-344.021154	-344.012357	-344.011412	-344.054271	31.865
C         -0.09260        1.44840        0.02080
N         -0.03000        0.00410        0.00900
C         -0.01230       -0.79550       -1.11530
C          0.03510       -2.11300       -0.72530
C          0.05360       -3.30910       -1.62830
C          0.07000       -2.11340        0.70210
C          0.03240       -0.80170        1.12370
N         -0.02710       -0.22000        2.40960
H          0.89900        1.90730       -0.08380
H         -0.72220        1.79660       -0.80230
H         -0.52920        1.77210        0.96760
H         -0.03260       -0.35520       -2.10020
H          0.95250       -3.92000       -1.48030
H         -0.80780       -3.96550       -1.45430
H          0.03040       -3.00850       -2.68020
H          0.12000       -2.97880        1.34710
H         -0.33720       -0.90380        3.08900
H          0.87440        0.13180        2.72090
