15
gdb 10140	2.80785	1.40018	0.98462	3.201	68.51	-0.2878	-0.0121	0.2756	1164.7283	0.115738	-362.620538	-362.611539	-362.610595	-362.654693	30.982
C         -0.00650        1.49370        0.04560
C         -0.11720       -0.01740        0.12150
O          0.83680       -0.47730        1.08040
C          0.87040       -1.87710        1.22270
C          2.03970       -2.26000        2.01210
C          3.00280       -2.59710        2.64190
C         -0.37500       -2.39270        1.85560
N         -1.36290       -2.77340        2.31710
H          1.00140        1.79240       -0.25500
H         -0.71950        1.88460       -0.68590
H         -0.22490        1.94300        1.01800
H         -1.12930       -0.32260        0.42290
H          0.09430       -0.47930       -0.85620
H          0.93750       -2.36040        0.23170
H          3.85410       -2.88880        3.20690
