20
gdb 13617	3.25686	1.24581	1.01826	1.0376	71.21	-0.255	0.0666	0.3216	1205.346	0.174777	-386.120827	-386.111222	-386.110278	-386.155442	34.421
C          1.54870        2.66340        0.47380
C          0.70850        1.37810        0.46550
C          0.76310        0.65780       -0.89290
O          0.27150        1.44280       -1.96630
C          1.18130        0.44130        1.55730
O          0.90060        0.80910        2.91300
C          0.31200       -0.39510        2.40480
C         -1.19200       -0.45330        2.32090
H          2.60240        2.45090        0.25340
H          1.18100        3.38210       -0.26550
H          1.50180        3.14320        1.45490
H         -0.33510        1.65010        0.65320
H          1.79280        0.31460       -1.08970
H          0.12740       -0.23350       -0.86290
H          0.89860        2.15410       -2.12650
H          2.20630        0.08500        1.41420
H          0.76780       -1.30000        2.81420
H         -1.61510        0.46300        1.90520
H         -1.50710       -1.29910        1.70010
H         -1.61680       -0.59730        3.31990
