17
gdb 8103	3.00394	1.97438	1.51289	2.6937	69.84	-0.2275	-0.0178	0.2098	896.2927	0.140584	-363.837514	-363.829586	-363.828642	-363.869486	29.748
C         -0.10610        1.53580        0.02190
N          0.08640        0.09310        0.13570
C          1.35030       -0.55970       -0.19900
C          2.52840        0.22950        0.32930
O          3.59580        0.52710       -0.12570
C          1.93320        0.29580        1.76080
C          0.76180       -0.55720        1.22450
C          0.09130       -1.67280        1.96930
H          0.73470        2.15480        0.36070
H         -0.29910        1.77160       -1.02830
H         -0.99330        1.81230        0.59980
H          1.36050       -1.31580       -0.97730
H          2.58670       -0.24500        2.45250
H          1.69690        1.27340        2.18870
H         -0.51100       -1.27860        2.79620
H         -0.57350       -2.22740        1.30270
H          0.82870       -2.36180        2.39370
