14
gdb 3281	5.30661	2.59558	2.0623	2.0233	57.07	-0.2343	-0.0308	0.2035	640.4692	0.114101	-324.542706	-324.536795	-324.535851	-324.572674	22.067
O          0.08090       -0.00670       -0.49990
C          0.02130        1.13160       -0.14460
C         -1.10290        2.09830        0.28270
N         -0.09200        3.17620        0.51050
C          0.46520        3.16030        1.90600
C          1.70420        2.33660        1.46310
C          1.04150        2.26400        0.06570
H         -1.79490        2.34110       -0.53180
H         -1.68930        1.80210        1.16010
H          0.68200        4.16740        2.27110
H         -0.18830        2.66430        2.63260
H          2.63870        2.89970        1.46490
H          1.87100        1.38100        1.96400
H          1.63670        2.54680       -0.80700
