20
gdb 6293	3.8445	1.06026	0.96279	2.9979	72.53	-0.2499	-0.0254	0.2245	1290.8825	0.172438	-386.152639	-386.142438	-386.141494	-386.188612	35.46
C         -0.09330        1.49640       -0.07490
C          0.03080       -0.02880       -0.06210
C          0.88570       -0.54920       -1.21170
O          0.65500       -0.47790        1.14500
C         -0.18520       -0.60810        2.27450
C         -0.85900       -1.97580        2.36850
C          0.68450       -0.30890        3.49330
O          0.46580       -0.71730        4.60310
H          0.89890        1.95520       -0.02020
H         -0.58320        1.83580       -0.99320
H         -0.68560        1.86090        0.77010
H         -0.97360       -0.47330       -0.13500
H          1.90170       -0.14900       -1.13710
H          0.94530       -1.64020       -1.18180
H          0.46490       -0.24640       -2.17510
H         -0.95830        0.18180        2.27430
H         -0.10510       -2.76630        2.32040
H         -1.39010       -2.06020        3.31970
H         -1.57030       -2.12130        1.55120
H          1.55150        0.34680        3.25780
