15
gdb 19377	4.37943	1.65604	1.4781	2.9299	60.34	-0.2281	0.0481	0.2762	860.6939	0.117992	-399.680018	-399.673041	-399.672097	-399.711304	26.701
O          0.13420        1.36030        0.17760
C          0.07290       -0.03730       -0.06370
C         -1.32950       -0.54560       -0.12460
N         -2.13640       -0.87530        1.08150
C         -1.90850       -1.89980        0.03350
C         -2.90270       -1.60760       -1.14970
O         -3.67950       -0.45620       -0.83030
C         -2.34650       -0.26350       -1.29720
H         -0.41400        1.54830        0.94720
H          0.57610       -0.19040       -1.02550
H          0.63690       -0.61020        0.69230
H         -1.46920       -1.08630        1.82670
H         -1.42390       -2.84370        0.24650
H         -3.29730       -2.31500       -1.86820
H         -2.18400        0.36990       -2.16050
