13
gdb 8608	2.11891	2.08603	1.48699	1.1576	71.43	-0.2565	0.0043	0.2608	913.2538	0.091148	-324.190117	-324.18127	-324.180326	-324.222832	32.664
N         -0.05130        1.48070        0.06410
C         -0.00440       -0.00110        0.01100
C         -1.39070       -0.50790        0.02040
C         -2.52090       -0.90990        0.00830
C          0.68480       -0.50630       -1.20050
C          1.25260       -0.85520       -2.20000
C          0.71300       -0.48390        1.20720
C          1.31460       -0.86620        2.17210
H          0.90540        1.82440        0.02400
H         -0.51730        1.80820       -0.77880
H         -3.52000       -1.27080        0.00570
H          1.75250       -1.17850       -3.07970
H          1.83970       -1.20980        3.02920
