21
gdb 13462	3.52717	1.20013	1.08613	2.2473	76.29	-0.2142	0.0768	0.2909	1215.1661	0.186532	-366.215538	-366.205676	-366.204732	-366.250487	34.643
C          1.34100        1.35720        1.27070
O          1.02080        0.00210        1.07300
C          1.58810       -0.84410        2.05540
C          1.23510       -2.26650        1.70170
C          1.07270       -3.34340        2.73120
C          1.25800       -3.13000        4.22020
N         -0.07760       -2.85570        1.96890
C         -1.12330       -2.06580        2.60140
H          2.42870        1.53090        1.23510
H          0.86660        1.92690        0.46790
H          0.96890        1.73100        2.23860
H          2.68690       -0.73400        2.06570
H          1.23050       -0.55490        3.05430
H          1.63670       -2.54890        0.72830
H          1.37340       -4.34520        2.42170
H          0.99720       -2.12580        4.55770
H          0.64400       -3.84040        4.78490
H          2.30280       -3.31100        4.49460
H         -0.80820       -1.43440        3.44420
H         -1.56580       -1.41250        1.84410
H         -1.90070       -2.74440        2.96740
