14
gdb 20990	3.46801	2.16202	1.35448	5.7322	59.21	-0.2478	0.0016	0.2494	861.802	0.10698	-415.893213	-415.885614	-415.88467	-415.9252	26.68
C         -0.02060        1.44230        0.02610
N         -0.00010       -0.00560        0.04880
C         -0.01970       -0.78380       -1.10370
O         -0.05350       -0.42760       -2.24940
O          0.01100       -2.07350       -0.66260
N          0.04800       -2.10210        0.75690
C          0.03980       -0.86090        1.12150
C          0.07080       -0.42640        2.54290
H          0.87830        1.85890        0.49000
H         -0.05260        1.73780       -1.02400
H         -0.90470        1.83430        0.53740
H          0.10030       -1.30930        3.18250
H          0.95240        0.19010        2.74700
H         -0.81650        0.16440        2.79330
