19
gdb 17544	4.30189	1.75754	1.6504	1.5123	74.12	-0.2257	0.0947	0.3204	869.3639	0.167868	-327.896005	-327.889254	-327.88831	-327.926571	27.658
C          0.05970        1.48020        0.73510
C          1.21250        0.85340        0.03900
C          2.17160        0.01460        0.87060
C          1.23630       -0.86410        1.70010
C          1.73240       -1.99450        2.55450
C          1.18340       -0.74760        3.20530
C         -0.04380       -0.97660        0.86620
N         -0.12430        0.21710        0.00300
H          0.04290        1.46210        1.82180
H         -0.44160        2.33380        0.28800
H          1.57030        1.27310       -0.89700
H          2.79400       -0.59520        0.20350
H          2.84610        0.61660        1.48840
H          1.13530       -2.90010        2.60010
H          2.80260       -2.16890        2.60350
H          1.88300       -0.07550        3.69260
H          0.21470       -0.81070        3.69180
H          0.00090       -1.85070        0.20460
H         -0.94710       -1.06910        1.47900
