14
gdb 9468	2.94247	1.82301	1.6006	2.6361	59.6	-0.2577	-0.0646	0.193	854.5709	0.103481	-419.679555	-419.671461	-419.670517	-419.7124	28.052
C         -0.10360        1.66780        0.05660
C          0.04670        0.15730       -0.03060
O          1.16240       -0.29380       -0.83930
C          1.83600       -0.96260        0.24600
C          0.72490       -0.52020        1.19920
O          0.48570       -0.60780        2.35990
C         -1.23970       -0.53570       -0.46380
O         -2.33890       -0.17380       -0.14040
H          0.78050        2.12850        0.50330
H         -0.24900        2.08370       -0.94440
H         -0.98250        1.89950        0.66240
H          1.90970       -2.04850        0.10250
H          2.83260       -0.55450        0.45350
H         -1.05990       -1.42340       -1.10850
