14
gdb 7624	4.96594	1.39126	1.21342	2.1865	59.34	-0.2542	0.0122	0.2665	959.7794	0.107395	-415.891622	-415.884055	-415.883111	-415.924184	27.403
N          0.49110       -0.08990        0.84140
C         -0.21020        0.58230       -0.10310
O          0.02600        1.71250       -0.48180
C         -1.36390       -0.19940       -0.71740
C         -1.12310       -0.77630       -2.13080
C         -1.32080       -2.11310       -1.44920
N         -1.32490       -3.30800       -1.81740
O         -1.52550       -1.55880       -0.18930
H          1.25380        0.37460        1.30570
H          0.20600       -1.01090        1.12820
H         -2.28610        0.37310       -0.59900
H         -1.87440       -0.52820       -2.88090
H         -0.12710       -0.60840       -2.54230
H         -1.51220       -3.94340       -1.04020
