20
gdb 13822	3.54112	1.24333	1.07229	1.9378	72.22	-0.2459	0.0786	0.3246	1185.4473	0.174627	-386.112185	-386.102627	-386.101683	-386.146727	34.41
C         -0.19810        1.36730       -0.33810
O         -0.52870        0.05250       -0.73790
C          0.54290       -0.62740       -1.31330
C          1.56200       -1.30250       -0.42780
C          0.54210       -2.12210       -1.19200
C         -0.56770       -2.83440       -0.44070
C         -1.76030       -3.13810       -1.34830
O         -0.08820       -4.01130        0.20850
H          0.60560        1.37270        0.41170
H          0.12300        1.98060       -1.19380
H         -1.09860        1.80840        0.09530
H          0.89390       -0.18640       -2.24830
H          2.60100       -1.32140       -0.73810
H          1.40840       -1.22860        0.64390
H          0.90300       -2.66330       -2.06560
H         -0.90180       -2.18670        0.37460
H         -1.45630       -3.75840       -2.20140
H         -2.53170       -3.67790       -0.79220
H         -2.18880       -2.21090       -1.74030
H          0.20600       -4.62300       -0.47530
