17
gdb 14170	3.96069	1.8354	1.78252	1.5802	67.43	-0.2353	0.0157	0.251	828.2886	0.142433	-363.863275	-363.855896	-363.854952	-363.894478	28.155
C         -0.06050        1.55430        0.03380
C          0.03590        0.04440        0.03910
C         -1.19140       -0.66620       -0.50640
C          1.32910       -0.66880       -0.25690
O          2.53760        0.07100       -0.11640
C          2.60670        0.39480        1.20260
N          1.69060       -0.00960        1.98610
C          0.74790       -0.72150        1.15510
H          0.79950        2.03480        0.50240
H         -0.13720        1.92900       -0.99290
H         -0.95510        1.87750        0.57730
H         -1.39720       -0.35520       -1.53690
H         -1.06520       -1.75370       -0.50520
H         -2.07450       -0.43380        0.09910
H          1.41330       -1.47170       -0.97950
H          3.47050        0.98710        1.47900
H          0.26310       -1.58100        1.60440
