16
gdb 4361	3.71545	1.82096	1.22498	1.1655	77.1	-0.1856	0.0209	0.2065	953.5209	0.133618	-342.854042	-342.846856	-342.845912	-342.884791	29.06
N         -0.00570        1.40670        0.16610
C          0.00100        0.01290        0.04910
C         -1.20250       -0.70630        0.05070
C         -1.16870       -2.09450       -0.00310
C          0.03300       -2.79010       -0.05940
C          1.24130       -2.07910       -0.06310
N          2.46070       -2.75380       -0.18280
C          1.21280       -0.68220       -0.00830
H          0.80870        1.86320       -0.21940
H         -0.85460        1.84530       -0.16090
H         -2.14870       -0.17710        0.09950
H         -2.10260       -2.64830       -0.00100
H          0.04330       -3.87430       -0.10620
H          2.43940       -3.70840        0.14610
H          3.25310       -2.25750        0.19920
H          2.14810       -0.12760       -0.01030
