13
gdb 21890	5.67225	1.60779	1.25271	2.3207	65.61	-0.2022	-0.0526	0.1497	888.9849	0.097983	-394.796642	-394.790152	-394.789208	-394.82716	25.192
O         -0.01060        1.33040        0.01000
C          0.03060       -0.02140        0.00240
N          1.17480       -0.61800       -0.00770
N          1.14510       -1.97990       -0.01480
C          0.02650       -2.80960       -0.01270
N          0.03370       -4.09600       -0.01980
C         -1.22410       -2.06060       -0.00110
C         -1.23180       -0.71420        0.00630
H          0.90480        1.64210        0.00620
H          2.06200       -2.39840       -0.02270
H          0.98520       -4.46820       -0.02760
H         -2.13110       -2.65200        0.00110
H         -2.14630       -0.13330        0.01490
