15
gdb 11740	5.40442	1.36045	1.2551	4.2378	61.78	-0.247	0.0072	0.2543	954.6412	0.118911	-399.783038	-399.775663	-399.774719	-399.814789	27.57
O          0.61320        0.20760        0.88900
C         -0.04100        0.18010       -0.36720
C         -1.43430       -0.38630       -0.27630
C         -2.34160       -0.34790        0.91250
C         -1.90540       -1.69920        0.32480
C         -2.68560       -1.89870       -0.96310
O         -3.44430       -2.70940       -1.40930
N         -2.17920       -0.69340       -1.50710
H          0.27330        0.95780        1.38600
H         -0.07480        1.17980       -0.82860
H          0.56010       -0.45610       -1.02530
H         -1.87750       -0.12570        1.86900
H         -3.37160       -0.01730        0.81320
H         -1.36060       -2.43090        0.90340
H         -2.77230       -0.02190       -1.98390
