14
gdb 997	4.06611	3.26467	1.83192	1.1867	59.45	-0.1787	0.0612	0.24	669.783	0.114073	-324.60605	-324.599064	-324.59812	-324.637077	25.178
C         -0.01500        1.45050        0.01800
N         -0.02060        0.00330        0.00030
C         -0.08410       -0.80550       -1.12360
C          0.00070       -2.11060       -0.71630
C          0.12930       -2.11730        0.70680
C          0.11470       -0.79930        1.09800
O          0.20760       -0.18850        2.31080
H          1.00390        1.85510        0.03110
H         -0.52800        1.81980       -0.87240
H         -0.54050        1.81220        0.90400
H         -0.18830       -0.36490       -2.10160
H         -0.03290       -2.97680       -1.35890
H          0.21380       -2.97530        1.35590
H          0.22900       -0.87140        2.98720
