16
gdb 8766	3.32076	1.31783	1.20275	3.5925	67.08	-0.2672	0.0031	0.2703	1051.982	0.129224	-379.957201	-379.948227	-379.947283	-379.991262	30.751
C         -0.04960        1.58690       -0.02580
C          0.06260        0.05200        0.02690
C          0.70600       -0.45860       -1.20330
N          1.22220       -0.84430       -2.16220
N          0.74690       -0.44050        1.21100
C          2.14430       -0.09480        1.43560
C          0.10230       -1.27840        2.08420
O          0.58380       -1.74220        3.09150
H          0.93470        2.05510       -0.09220
H         -0.62940        1.89020       -0.90090
H         -0.55260        1.94300        0.87660
H         -0.95030       -0.36690        0.05240
H          2.26310        0.96940        1.66460
H          2.48780       -0.68130        2.28730
H          2.74520       -0.33880        0.55350
H         -0.93790       -1.48470        1.76290
