17
gdb 14161	3.45265	2.3264	1.89531	0.7931	68.03	-0.2119	0.0089	0.2208	769.6452	0.142703	-363.809196	-363.802144	-363.8012	-363.839749	28.537
C         -0.11950        1.51210       -0.04880
C         -0.01660       -0.00570       -0.02050
O         -1.25900       -0.59260       -0.29640
C          1.28610       -0.62330       -0.71150
N          1.99350       -0.14870        0.52720
C          0.74530       -0.63570        1.20960
C          0.70110       -2.12970        0.84210
C          1.06570       -2.11880       -0.44380
H          0.83490        1.97720        0.19280
H         -0.42710        1.85160       -1.04720
H         -0.87750        1.84920        0.66710
H         -1.75600        0.01000       -0.85740
H          1.66670       -0.29140       -1.67870
H          2.78040       -0.76040        0.74520
H          0.56360       -0.32380        2.23910
H          0.37650       -2.94430        1.47280
H          1.12070       -2.92410       -1.16180
