17
gdb 10621	2.94422	1.68919	1.29066	2.4392	71.8	-0.2473	0.0253	0.2726	988.5147	0.140745	-363.802661	-363.794063	-363.793119	-363.835273	32.21
C          0.32920        1.44580        0.02430
C          0.24440       -0.05750        0.13910
N          1.49180       -0.83670        0.20710
C          0.57940       -0.83510        1.38030
C          1.20250       -0.18950        2.62990
O          2.27810        0.66190        2.31650
C         -0.20000       -2.01440        1.65030
C         -0.83810       -3.00100        1.90970
H          1.10010        1.84900        0.68060
H          0.55380        1.73090       -1.00920
H         -0.63260        1.89530        0.29310
H         -0.55060       -0.50700       -0.45360
H          1.41650       -1.71070       -0.30510
H          0.44500        0.39750        3.16130
H          1.51910       -1.00370        3.30040
H          2.69730        0.26530        1.53700
H         -1.40870       -3.86870        2.13170
