14
gdb 14823	3.47803	1.54783	1.15129	4.1251	64.42	-0.2649	-0.0052	0.2597	985.9865	0.107637	-378.737569	-378.729925	-378.72898	-378.770702	26.02
O          0.05560       -0.01290        0.42470
C          0.05970        1.19450        0.33690
N          1.11710        1.91360       -0.12200
C          2.48550        1.48300       -0.41920
C          2.89610        2.98210       -0.48250
C          1.42610        3.34570       -0.07270
C          0.67740        4.18660       -1.00940
N          0.09430        4.85790       -1.74740
H         -0.79920        1.84080        0.60780
H          2.93830        0.90380        0.39090
H          2.57840        0.92210       -1.35270
H          3.64530        3.29880        0.24140
H          3.16950        3.33750       -1.47470
H          1.34270        3.78150        0.92990
