15
gdb 2434	5.49442	2.85847	2.48846	1.6431	60.11	-0.2252	0.0905	0.3157	604.1409	0.125438	-308.45482	-308.44905	-308.448106	-308.483947	22.953
C          0.00420        1.42380       -0.04090
C         -0.01380       -0.06480        0.01590
O          0.91080       -0.80520       -0.79150
C          0.11940       -1.98440       -0.47560
C          0.42790       -2.23770        1.02310
C         -0.32410       -0.92820        1.25740
C         -1.10050       -1.08490       -0.05350
H          0.96180        1.81390        0.32040
H         -0.14630        1.77820       -1.06550
H         -0.79020        1.83650        0.58810
H          0.16470       -2.75780       -1.23930
H         -0.12830       -3.09440        1.41300
H          1.48590       -2.30590        1.29570
H         -0.66940       -0.49910        2.18980
H         -2.15260       -1.05450       -0.30120
