18
gdb 7288	4.08295	1.07214	0.90018	2.949	65.28	-0.2492	-0.0188	0.2304	1260.2499	0.149824	-422.082301	-422.072482	-422.071538	-422.117361	34.34
C          0.04800        1.56220        0.06730
C          0.00910        0.03750        0.04520
O          0.67490       -0.53010        1.16970
C         -1.43300       -0.50500       -0.05770
O         -2.12180        0.04630       -1.17390
C         -1.46770       -2.03740       -0.07890
C         -2.88300       -2.56550       -0.06740
O         -3.32950       -3.35670       -0.85660
H          1.08160        1.91710        0.08810
H         -0.45880        1.97350       -0.80790
H         -0.46680        1.94640        0.95810
H          0.56910       -0.32830       -0.82700
H          0.38550       -0.05060        1.95400
H         -1.99170       -0.14560        0.81920
H         -1.79130       -0.38240       -1.97170
H         -0.95010       -2.43130       -0.96190
H         -0.94030       -2.40420        0.81040
H         -3.51410       -2.16090        0.75870
