12
gdb 9158	8.94993	0.80824	0.74478	1.8126	76.42	-0.2643	-0.0694	0.1949	1422.9919	0.081073	-381.308309	-381.299875	-381.29893	-381.341796	28.478
C         -0.04170        1.36350        0.05990
O          0.01430       -0.06930       -0.01120
C          0.62930       -0.55810       -1.10160
O          1.11300        0.11260       -1.98010
C          0.63710       -2.00160       -1.08650
C          0.68970       -3.20920       -1.15660
C          0.73980       -4.56470       -1.21900
C          0.78520       -5.76990       -1.27630
H          0.96580        1.78650        0.07210
H         -0.58470        1.76920       -0.79720
H         -0.56480        1.58920        0.98850
H          0.82430       -6.83040       -1.32490
