14
gdb 19039	4.23507	2.32904	2.00679	4.9029	60.09	-0.2475	0.0192	0.2667	691.5079	0.110285	-378.711906	-378.706398	-378.705454	-378.741347	22.399
O         -0.05040        0.03880        0.28240
C         -0.05210        1.21190        0.02890
N         -1.15530        2.01900       -0.22830
C         -0.74940        3.40210       -0.02520
C         -0.17610        3.60400        1.42120
C          1.19440        3.20630        0.85850
C          0.71630        3.36850       -0.54020
N          1.13130        2.04290       -0.08790
H         -2.03840        1.68700        0.13380
H         -1.46070        4.12560       -0.41650
H         -0.16700        4.65920        1.70730
H         -0.61890        3.00430        2.22230
H          2.16520        3.39900        1.29680
H          1.15070        3.80780       -1.42930
