14
gdb 9190	7.55511	0.9121	0.82223	3.8775	60.5	-0.2707	0.0059	0.2766	1310.6397	0.106076	-415.9063	-415.897342	-415.896398	-415.942207	28.942
C         -0.00010        1.38040        0.14790
N          0.16140       -0.05030       -0.01320
C          0.63820       -0.60070       -1.15250
O          0.98390       -0.01960       -2.15650
O          0.68140       -1.96510       -1.01780
C          1.17400       -2.62950       -2.17780
C          1.16920       -4.06710       -1.90730
N          1.17920       -5.20750       -1.72890
H          0.61190        1.75910        0.97360
H          0.32320        1.85510       -0.77880
H         -1.04660        1.64360        0.33570
H         -0.08320       -0.67620        0.73610
H          0.54700       -2.41040       -3.04830
H          2.18980       -2.29690       -2.41570
