7
gdb 34	35.93172	4.83443	4.37827	4.6788	28.56	-0.3018	0.0022	0.3039	280.6659	0.050262	-207.916786	-207.912215	-207.911271	-207.943384	13.845
O         -0.03740        1.44550        0.01010
C          0.01290        0.03440        0.00210
C         -1.35750       -0.48870        0.01240
N         -2.42140       -0.93690        0.02020
H          0.86900        1.76970        0.00420
H          0.51690       -0.36330       -0.89220
H          0.53390       -0.37280        0.88220
