14
gdb 5376	5.21604	1.67314	1.27683	2.3612	70.52	-0.2257	-0.065	0.1607	909.6631	0.107868	-378.734197	-378.727107	-378.726163	-378.766048	25.306
C         -0.16070        1.43360        0.07100
N         -0.13900       -0.01860        0.07050
C          0.65950       -0.61850        0.84680
O          1.51610        0.07600        1.70000
C          2.34810       -0.62830        2.50640
C          2.37720       -1.96850        2.51410
N          1.54980       -2.72670        1.68940
C          0.75360       -2.07580        0.91700
H          0.81810        1.85740       -0.19180
H         -0.89670        1.78130       -0.65670
H         -0.42710        1.83750        1.05730
H          2.96370        0.01620        3.12140
H          3.05080       -2.50730        3.16760
H          0.08570       -2.61810        0.25230
