13
gdb 1709	4.67676	2.16969	1.92142	2.4548	54.25	-0.2443	0.0099	0.2541	688.1963	0.101991	-340.610697	-340.603891	-340.602947	-340.641384	24.492
O         -0.04260        1.44590       -0.05650
C          0.01090        0.04100       -0.00010
C          0.17900       -0.56680        1.43100
N         -1.28630       -0.75030        1.50490
C         -1.42920       -0.54010        0.04690
C          0.91000       -0.49710       -1.02720
N          1.64160       -0.90840       -1.82240
H          0.84910        1.79470        0.05840
H          0.77210       -1.48960        1.42850
H          0.58840        0.12870        2.17170
H         -1.58380       -1.66000        1.83540
H         -2.19840        0.18360       -0.23740
H         -1.53580       -1.45030       -0.55450
