17
gdb 2887	6.33786	1.75862	1.47214	0.8513	69.64	-0.2539	0.0599	0.3138	845.963	0.149373	-272.569212	-272.561967	-272.561023	-272.601994	26.623
C         -0.35850       -1.11420       -0.68480
C         -0.16370       -0.00110       -0.27320
C          0.08460        1.33690        0.24100
C         -0.36780        1.55870        1.70420
C          0.34450        2.86200        2.12740
C          1.60220        2.98010        1.21350
C          1.57790        1.73930        0.29470
H         -0.53410       -2.09430       -1.05310
H         -0.44360        2.06150       -0.39550
H         -1.45500        1.60670        1.80390
H         -0.02220        0.71230        2.30740
H         -0.31490        3.72260        1.97830
H          0.60410        2.84850        3.18920
H          1.55270        3.89650        0.61710
H          2.52960        3.03280        1.78970
H          2.14500        0.91420        0.73910
H          1.99770        1.92560       -0.69690
