11
gdb 21680	5.85037	1.67806	1.30589	6.682	56.42	-0.2575	-0.1022	0.1553	837.7801	0.072494	-430.71064	-430.704101	-430.703157	-430.74176	23.9
N          0.03810        1.40020        0.14220
C         -0.01430        0.02640        0.03030
N         -1.16480       -0.56470        0.01330
O         -1.13220       -1.95600        0.01500
C          0.03650       -2.69920       -0.02390
O         -0.05530       -3.88990       -0.04540
N          1.26290       -2.01010       -0.03260
C          1.22630       -0.73180        0.00130
H          0.78770        1.85550       -0.35790
H         -0.85580        1.85750        0.02150
H          2.17340       -0.18750        0.00950
