16
gdb 434	4.43292	3.8862	2.44563	1.7671	56.23	-0.2398	0.085	0.3248	585.5983	0.142555	-271.620997	-271.61422	-271.613276	-271.651656	24.15
C         -0.20420        1.56100       -0.09400
C          0.00370        0.05310       -0.03490
C          1.24890       -0.49030       -0.77010
O          1.87320       -0.88320        0.46710
C          0.68470       -0.55570        1.22760
C          0.99070        0.30230        2.43880
H          0.71930        2.10650        0.12370
H         -0.53510        1.86050       -1.09440
H         -0.96710        1.89110        0.61910
H         -0.92460       -0.45820       -0.30320
H          1.06640       -1.34900       -1.43030
H          1.84830        0.25150       -1.31400
H          0.18180       -1.47840        1.55470
H          1.48900        1.23380        2.15850
H          0.07190        0.54410        2.98420
H          1.65310       -0.24410        3.11790
