18
gdb 14275	2.96432	2.62478	1.87413	1.9741	66.6	-0.25	0.0785	0.3285	774.8023	0.157073	-384.923139	-384.916898	-384.915954	-384.953095	25.814
C         -0.02000        1.55830        0.04670
C          1.53560        1.51270        0.01170
C          1.44000        0.04750        0.53020
C         -0.01630        0.00710       -0.02280
O         -0.11770       -0.55160       -1.32410
C          0.47680        0.16080       -2.38060
O          1.83890        0.43980       -2.20320
C          2.12490        1.58180       -1.40120
H         -0.38190        1.88470        1.02530
H         -0.55500        2.12120       -0.72270
H          2.05200        2.24000        0.64520
H          2.13330       -0.68610        0.11690
H          1.45130       -0.00080        1.62250
H         -0.76100       -0.52570        0.57180
H          0.39990       -0.50130       -3.24620
H         -0.07220        1.09640       -2.58180
H          1.77660        2.49600       -1.90960
H          3.21730        1.62120       -1.35150
