22
gdb 6412	3.28011	0.99307	0.91817	2.0022	74.69	-0.2592	0.0684	0.3276	1384.1454	0.197686	-387.342606	-387.332121	-387.331177	-387.37835	37.856
C         -1.97510        1.68920       -1.13820
C         -1.95200        0.16880       -1.29840
O         -1.03750       -0.22630       -2.32160
C         -1.65350       -0.54650        0.02870
C         -1.62550       -2.08370       -0.04980
C         -0.92070       -2.69580        1.16670
C         -3.03830       -2.66720       -0.20150
O         -3.04410       -4.07730       -0.37620
H         -2.16140        2.16990       -2.10230
H         -2.75400        2.00310       -0.43570
H         -1.01430        2.05410       -0.75290
H         -2.92770       -0.15560       -1.67890
H         -0.16140        0.08120       -2.06170
H         -0.67710       -0.19100        0.39010
H         -2.38500       -0.22440        0.78320
H         -1.06140       -2.34910       -0.95510
H         -1.39960       -2.37270        2.09940
H         -0.96960       -3.78680        1.12840
H          0.13130       -2.39520        1.21180
H         -3.61360       -2.48330        0.71460
H         -3.57370       -2.17270       -1.02550
H         -2.60120       -4.26700       -1.20970
