17
gdb 18447	6.61924	1.19442	1.09881	3.7696	71.4	-0.2399	0.0043	0.2442	1089.2292	0.141654	-363.839281	-363.83163	-363.830686	-363.871296	28.294
C          0.08010        1.55600        0.13030
C         -0.00770        0.04120       -0.00010
C          1.05480       -0.59030       -0.97870
C          1.67690       -1.33320        0.21030
C          0.65910       -0.73570        1.15090
N          0.63100       -2.15110        0.79810
C          0.88040       -3.18100        1.68560
O          1.76720       -3.99440        1.57850
H          1.10320        1.87600        0.35860
H         -0.22230        2.04420       -0.80180
H         -0.57210        1.92450        0.92960
H         -1.03810       -0.27310       -0.18870
H          0.67780       -1.22560       -1.78300
H          1.72010        0.17000       -1.39480
H          2.71160       -1.59900        0.38520
H          0.77160       -0.43440        2.18710
H          0.10940       -3.22700        2.47920
