16
gdb 8799	5.0603	1.09117	0.91261	1.3443	62.26	-0.2399	-0.0822	0.1577	1238.1701	0.126384	-420.898998	-420.889445	-420.888501	-420.934429	32.003
C          0.02700        1.53940        0.00950
C         -0.05120        0.01560        0.00270
C         -1.46720       -0.51080        0.01350
O         -2.45600        0.18800        0.02660
C         -1.62630       -2.04990        0.00680
O         -0.66070       -2.77090       -0.00650
C         -3.06120       -2.54400        0.01740
O         -3.06520       -3.94660        0.00970
H          1.06880        1.86990        0.00140
H         -0.47620        1.96250       -0.86400
H         -0.45960        1.95370        0.89660
H          0.45510       -0.41960       -0.86890
H          0.47140       -0.42820        0.86010
H         -3.55390       -2.10930        0.90280
H         -3.57030       -2.09950       -0.85380
H         -3.98080       -4.24000        0.01680
