17
gdb 20887	6.5716	1.1299	1.04821	0.7555	70.7	-0.2554	0.0013	0.2567	1155.6019	0.144267	-360.057558	-360.049812	-360.048868	-360.090968	27.229
C         -0.02750        1.53350       -0.01060
C          0.00810        0.00370        0.00350
C          0.73580       -0.53740        1.23870
N          0.77950       -1.99100        1.26720
N         -0.18790       -2.71500        1.81890
C          0.18020       -3.97370        1.56770
C          1.38290       -3.95140        0.85100
N          1.74440       -2.67920        0.66730
H          0.98330        1.95600       -0.01800
H         -0.54870        1.90420       -0.89760
H         -0.54660        1.92880        0.86950
H         -1.00990       -0.40140       -0.00780
H          0.51280       -0.37400       -0.89260
H          1.77130       -0.18910        1.26360
H          0.23480       -0.21930        2.15610
H         -0.41430       -4.80550        1.91010
H          1.98940       -4.76100        0.47780
