20
gdb 18345	3.11339	2.14553	1.47444	0.2016	80.23	-0.224	0.0338	0.2578	924.4399	0.178819	-311.882326	-311.874908	-311.873964	-311.913809	29.161
C          0.35370        1.36960       -0.04030
C          0.04130       -0.09510       -0.04320
C         -0.11340       -0.88400       -1.11150
C         -0.45640       -2.31450       -0.76460
C         -0.27930       -2.34470        0.76590
C          1.16150       -2.60300        1.30220
C          1.14420       -1.22690        2.02470
C         -0.15620       -0.86070        1.24520
H          1.27070        1.58160        0.52380
H          0.48200        1.75980       -1.05380
H         -0.44690        1.94240        0.44570
H         -0.02380       -0.54200       -2.13850
H         -1.48030       -2.56580       -1.07610
H          0.20000       -3.03970       -1.26480
H         -1.03650       -2.94160        1.27770
H          1.29030       -3.48060        1.94030
H          1.90040       -2.65470        0.49740
H          0.97130       -1.31630        3.10090
H          2.01010       -0.57700        1.87000
H         -0.96110       -0.43370        1.85510
