15
gdb 9599	3.99033	1.21313	1.19463	2.0053	65.41	-0.2655	-0.0593	0.2061	1040.6311	0.116134	-399.793748	-399.785455	-399.784511	-399.82683	29.075
C         -0.15690        1.59940        0.01230
C          0.02730        0.10110       -0.02320
N          1.31780       -0.43470       -0.47240
C          0.94250       -0.66300        0.92000
C          1.74150        0.06060        1.95570
O          1.77620       -0.27680        3.11070
C         -1.17460       -0.69990       -0.41710
O         -2.25590       -0.23210       -0.65780
H          0.79320        2.10920        0.17610
H         -0.57520        1.93980       -0.93870
H         -0.85870        1.88200        0.80130
H          1.20340       -1.28730       -1.01900
H          0.60890       -1.65060        1.23400
H          2.31280        0.93110        1.57180
H         -0.97780       -1.79730       -0.49190
