15
gdb 8130	4.3236	1.81998	1.50651	4.9735	60.84	-0.2506	0.0481	0.2988	843.8218	0.119473	-399.836647	-399.829702	-399.828758	-399.867529	26.704
C         -0.01250        1.56450        0.03050
C          0.05090        0.06030        0.01420
C         -0.83050       -0.81620        0.89760
C          0.66770       -0.80490        1.07800
O          1.41060       -1.82500        0.44700
C          1.25610       -1.72140       -0.91880
O          1.68740       -2.52310       -1.69680
N          0.54040       -0.57010       -1.17940
H          0.94180        1.99700       -0.28520
H         -0.79600        1.93550       -0.64020
H         -0.24380        1.92740        1.03580
H         -1.41040       -0.31850        1.66760
H         -1.28970       -1.69900        0.46610
H          1.14020       -0.43000        1.97710
H          0.09930       -0.47730       -2.07990
