15
gdb 14907	4.7251	1.49814	1.21778	3.6112	67.05	-0.2716	-0.0073	0.2643	951.284	0.120618	-362.677243	-362.670301	-362.669357	-362.708563	25.827
N         -0.06780       -1.16760       -0.05780
C         -0.02890       -0.01280       -0.02800
C          0.01150        1.44960        0.02750
C         -0.70380        1.96500        1.30070
O         -0.52620        3.35700        1.42070
C          0.82130        3.72180        1.66160
C          1.79480        2.99830        0.77520
C          1.43780        1.97120        0.01100
H         -0.53070        1.82440       -0.85180
H         -1.77930        1.78520        1.24130
H         -0.30760        1.43160        2.17790
H          0.87680        4.80270        1.48970
H          1.08480        3.55290        2.72140
H          2.82110        3.35450        0.78400
H          2.14800        1.46820       -0.63640
