10
gdb 3774	4.15275	3.66055	1.96997	3.4599	44.89	-0.2838	-0.0538	0.23	587.6856	0.06664	-392.61282	-392.606835	-392.605891	-392.643045	20.078
C          0.06370        1.42050       -0.04390
N          0.04950       -0.02660       -0.00890
N          0.17090       -0.79140       -1.11050
N          0.12730       -2.00040       -0.79250
O         -0.03360       -2.09250        0.61050
C         -0.08370       -0.82090        1.11720
O         -0.21260       -0.50580        2.26500
H          1.01160        1.78460       -0.44630
H         -0.76340        1.79710       -0.65000
H         -0.05250        1.75480        0.98810
