14
gdb 990	3.78434	3.15078	1.7422	1.8042	59.23	-0.1927	0.0345	0.2272	698.3486	0.114432	-324.601619	-324.594822	-324.593877	-324.632012	25.208
C         -0.06040        1.51950        0.02270
C         -0.01550        0.02450        0.00820
C         -0.00980       -0.80890       -1.06630
O          0.01850       -2.10820       -0.68720
C          0.04150       -2.11720        0.68180
C          0.01730       -0.84220        1.16190
N         -0.05990       -0.39870        2.49170
H          0.83910        1.95370        0.47870
H         -0.13620        1.92150       -0.99130
H         -0.91920        1.88750        0.59610
H         -0.02560       -0.62630       -2.12890
H          0.06040       -3.08690        1.14980
H          0.19310       -1.11550        3.15970
H          0.50950        0.42180        2.65970
