18
gdb 15724	3.3632	1.74208	1.26079	1.88	63.56	-0.2468	0.0639	0.3107	974.5536	0.154199	-422.060513	-422.052423	-422.051478	-422.093447	29.671
C         -0.53860        1.08310       -0.07200
O          0.38980        0.03160        0.14880
C          0.91040       -0.53770       -1.04160
C          2.31090       -1.11510       -0.75880
O          2.35570       -2.39140       -1.37570
C          1.06570       -2.95380       -1.20780
C          0.08110       -1.79870       -1.48330
O         -1.14800       -1.91110       -0.80680
H         -0.07330        1.90730       -0.63130
H         -1.42400        0.73590       -0.61790
H         -0.84200        1.45000        0.91160
H          0.93360        0.22010       -1.83300
H          3.12830       -0.51520       -1.16450
H          2.43160       -1.18900        0.33340
H          0.96870       -3.79660       -1.89540
H          0.91110       -3.31800       -0.17770
H         -0.14620       -1.74680       -2.55170
H         -0.98610       -1.56980        0.08360
