16
gdb 12037	3.88724	1.78361	1.55589	1.6527	70.18	-0.2409	0.0288	0.2697	867.7041	0.128262	-346.523989	-346.516391	-346.515447	-346.555345	29.512
C         -0.04930        1.56810        0.01680
C          0.04680        0.04930        0.08000
O          1.08590       -0.48230       -0.81780
C          1.66900       -1.21870        0.26200
C          2.21710       -0.29320        1.29750
C          0.73760       -0.62440        1.28510
C         -1.23900       -0.57660       -0.21980
C         -2.30830       -1.07600       -0.44670
H          0.90580        2.02790        0.27890
H         -0.32230        1.88060       -0.99490
H         -0.81930        1.92470        0.70700
H          1.99560       -2.23280        0.06660
H          2.76110       -0.76600        2.10990
H          2.58720        0.68480        1.00610
H          0.21520       -1.07580        2.11650
H         -3.24840       -1.52280       -0.65830
