12
gdb 3841	5.73104	2.83546	1.89694	1.8535	60.81	-0.2129	-0.0553	0.1576	624.6814	0.093522	-319.567241	-319.561845	-319.560901	-319.596299	20.663
N         -0.04510        1.34330        0.01030
C         -0.02210        0.06010        0.00340
N          1.13690       -0.73360       -0.00780
N          1.22960       -2.07410       -0.01540
C          0.11140       -2.73420       -0.01210
C         -1.17160       -2.08880       -0.00100
C         -1.23640       -0.74000        0.00650
H          0.89610        1.74070        0.00670
H          2.03270       -0.26780       -0.01070
H          0.20170       -3.81430       -0.01840
H         -2.07090       -2.69510        0.00130
H         -2.17010       -0.19130        0.01510
