15
gdb 3609	4.12041	4.09885	2.93987	1.7578	59.35	-0.2354	0.0773	0.3127	542.4212	0.127448	-308.465534	-308.460588	-308.459644	-308.493864	20.549
C         -0.03700        1.50600        0.02810
C          1.51520        1.56840        0.01580
C          2.13700        1.15950        1.37940
C          1.78570       -0.31630        1.07870
O          0.38080       -0.58680        1.28810
C          0.04090       -0.03820       -0.00590
C          1.53940        0.04700       -0.41330
H         -0.57130        1.95820        0.86830
H         -0.44830        1.88750       -0.91290
H          1.99010        2.37530       -0.54140
H          3.22300        1.30230        1.36930
H          1.72180        1.59270        2.29370
H          2.41810       -1.11670        1.46830
H         -0.74640       -0.61220       -0.49870
H          2.01380       -0.38900       -1.28820
