13
gdb 378	4.3707	3.32059	2.02436	3.2128	50.59	-0.2865	0.0177	0.3042	619.0012	0.106659	-286.495035	-286.487984	-286.48704	-286.525708	23.771
C         -0.52790        1.07590       -0.10230
O          0.63060        0.27860        0.07500
C          1.01580       -0.44620       -1.06820
C          2.37610       -1.08270       -0.78740
C          0.00790       -1.47820       -1.41730
N         -0.78720       -2.27300       -1.68480
H         -0.38890        1.80900       -0.91080
H         -1.41190        0.46450       -0.32740
H         -0.68920        1.60640        0.83770
H          1.09360        0.22680       -1.93870
H          2.30580       -1.75260        0.07230
H          2.72070       -1.65120       -1.65430
H          3.09700       -0.29340       -0.56350
