19
gdb 17637	2.96907	1.51055	1.1975	3.0895	71.91	-0.2374	-0.0158	0.2216	1073.3497	0.163698	-365.05757	-365.048353	-365.047409	-365.092177	32.704
C         -0.82830        2.00360        0.62750
C         -0.28110        0.62770        0.22420
C          0.55990        0.01960        1.34120
C          1.71250       -0.86900        1.04810
N          1.93160        0.48780        1.58350
C         -1.42630       -0.35190       -0.07880
C         -1.23810       -1.28640       -1.25720
O         -2.41470       -0.38350        0.61760
H         -0.01580        2.66860        0.93390
H         -1.36420        2.47460       -0.20220
H         -1.52730        1.89560        1.46000
H          0.35500        0.71860       -0.66650
H         -0.00320       -0.15570        2.25590
H          1.96990       -1.67740        1.72630
H          1.96010       -1.05990        0.00620
H          2.22250        1.10890        0.83110
H         -0.28620       -1.82160       -1.17120
H         -2.06340       -1.99730       -1.31060
H         -1.19240       -0.70590       -2.18660
