12
gdb 21615	7.01495	1.37479	1.15119	3.9429	65.62	-0.225	-0.0086	0.2164	956.0074	0.085398	-373.69485	-373.68784	-373.686896	-373.725789	26.164
N          0.02370        1.36490        0.15140
C         -0.03670       -0.00830        0.04010
N         -1.13220       -0.73970        0.05140
C         -0.64110       -2.02290       -0.00360
N          0.68130       -2.11830       -0.05690
N          1.05450       -0.80820       -0.02490
C         -1.48060       -3.16720       -0.01140
C         -2.20310       -4.12800       -0.01770
H          0.72380        1.81570       -0.42120
H         -0.88780        1.78380        0.02680
H          2.03140       -0.56900        0.00220
H         -2.83900       -4.97830       -0.02280
