17
gdb 5739	3.71512	2.13292	1.3906	2.0193	76.98	-0.1869	0.0563	0.2432	895.0999	0.143883	-326.736512	-326.729195	-326.728251	-326.76851	27.069
C         -0.08570        1.55430       -0.04680
C          0.05220        0.06910       -0.07600
C         -0.10440       -0.84690       -1.10980
C          0.13810       -2.17840       -0.63570
C          0.43980       -2.02370        0.69630
C          0.81590       -2.42440        2.11420
C          0.73880       -0.87880        2.42590
N          0.38540       -0.69880        1.00960
H          0.84640        2.05380        0.24680
H         -0.35640        1.92020       -1.04020
H         -0.86410        1.88710        0.65160
H         -0.37120       -0.57920       -2.12250
H          0.08900       -3.08730       -1.21410
H          0.08650       -3.03100        2.65810
H          1.80900       -2.86220        2.24860
H         -0.04790       -0.57820        3.12440
H          1.68390       -0.40870        2.71400
