14
gdb 16440	3.49317	2.27333	1.72132	3.376	56.63	-0.2283	0.0622	0.2905	751.32	0.105836	-419.567629	-419.560911	-419.559966	-419.598149	26.184
O         -0.04960        1.48070       -0.07950
C          0.04570        0.07340       -0.04060
C          0.04020       -0.62460        1.33460
C         -1.48090       -0.36480        1.55320
O         -1.79730       -1.75790        1.83930
C         -0.79470       -1.82850        0.78670
C         -1.33060       -0.60350       -0.00750
O         -2.29120       -0.64730       -0.98210
H          0.83140        1.85410        0.01860
H          0.76010       -0.31320       -0.77960
H          0.80440       -0.67140        2.10590
H         -1.98730        0.41850        2.11240
H         -0.46540       -2.80320        0.43060
H         -2.47150        0.25720       -1.26420
