20
gdb 15442	4.83283	0.82662	0.76208	0.9156	72.16	-0.258	0.0767	0.3347	1497.2604	0.175844	-386.111258	-386.101642	-386.100698	-386.146317	34.012
O          0.05540        1.40520        0.15900
C          0.01390       -0.01020        0.26430
C         -1.33890       -0.47960       -0.26160
C         -1.47580       -1.98760       -0.20890
C         -1.95350       -2.69310        1.03960
C         -2.80490       -2.70990       -0.20560
C         -4.12720       -1.99060       -0.24450
O         -5.10890       -2.85730        0.31340
H          0.90290        1.70710        0.49810
H          0.82220       -0.47780       -0.32220
H          0.13780       -0.33990        1.30810
H         -2.11980        0.00820        0.33090
H         -1.45230       -0.11680       -1.29090
H         -0.69470       -2.50630       -0.76150
H         -1.46490       -3.60900        1.35280
H         -2.29790       -2.07120        1.86090
H         -2.82720       -3.64820       -0.75340
H         -4.06950       -1.04830        0.32040
H         -4.38120       -1.73100       -1.28540
H         -5.96620       -2.43100        0.22160
