12
gdb 2056	5.3113	2.74199	1.90934	2.1195	51.04	-0.2799	-0.0294	0.2506	626.1609	0.091807	-360.559076	-360.55341	-360.552466	-360.588698	20.591
O         -0.00920       -0.06410       -0.18610
C         -0.06750        1.10220        0.05750
C         -1.30830        1.96150        0.09990
C         -1.21180        3.00640        1.21930
N          0.05650        3.72570        1.19080
C          1.05120        3.10140        0.74160
O          1.10790        1.79490        0.29560
H         -1.37890        2.47440       -0.86830
H         -2.17820        1.31000        0.19610
H         -2.02720        3.72970        1.13440
H         -1.31700        2.53140        2.20430
H          2.04040        3.54680        0.68580
