12
gdb 19337	5.26243	1.70676	1.52676	3.2209	59.68	-0.2522	-0.0099	0.2423	789.9375	0.083727	-377.421908	-377.41582	-377.414876	-377.452089	23.357
N          0.08250       -1.14820       -0.11210
C          0.06780        0.00810       -0.04140
C          0.02910        1.42120        0.06990
N          0.21080        2.34270       -1.08470
C          1.15350        2.40820        0.03630
C          0.47190        3.20450        1.20740
O         -0.84530        3.57560        0.80170
C         -0.63210        2.24970        1.24760
H          0.65410        1.80440       -1.83030
H          2.21140        2.21090       -0.07120
H          0.96190        3.78220        1.97970
H         -1.23660        1.84640        2.04960
