15
gdb 19386	3.14594	2.30341	1.59822	3.6722	66.64	-0.2354	-0.0177	0.2176	810.7841	0.119063	-362.611384	-362.604629	-362.603685	-362.642252	25.937
O          0.03860        0.03260       -0.10900
C         -0.00630        1.22400        0.00070
C         -1.11360        2.26880       -0.05350
N         -0.88990        3.15580        1.14480
C         -0.06700        3.34930       -0.05860
C          1.04920        2.32150        0.03850
C          2.35580        2.34630        0.77530
C          2.34730        2.24920       -0.72500
H         -2.08230        2.21870       -0.53320
H         -1.64840        3.83980        1.11860
H         -0.06950        4.27030       -0.62690
H          2.65380        3.28460        1.23060
H          2.61430        1.45990        1.34470
H          2.58790        1.29570       -1.18320
H          2.63990        3.12100       -1.30090
