18
gdb 17380	3.92149	1.54919	1.28325	1.5649	67.27	-0.2492	0.0712	0.3204	984.7986	0.15254	-384.897511	-384.889453	-384.888509	-384.929925	30.287
C          0.02070        1.49860        0.15200
C         -0.06760       -0.02080        0.00320
O         -1.41930       -0.44450       -0.18080
C          0.68750       -0.53870       -1.21070
C          2.25940       -0.45610       -1.23070
C          2.28720       -1.98460       -1.36850
O          1.60820       -2.51940       -0.22560
C          0.81890       -2.06790       -1.33350
H          1.05750        1.82860        0.27300
H         -0.40360        1.99380       -0.72760
H         -0.53750        1.83490        1.03350
H          0.36160       -0.50220        0.89480
H         -1.91670       -0.20120        0.60620
H          0.25930       -0.10640       -2.12070
H          2.64100        0.07460       -2.10580
H          2.74660       -0.07210       -0.33040
H          3.02550       -2.61830       -1.84580
H          0.12960       -2.77850       -1.77250
