15
gdb 10047	3.49103	1.25991	0.98996	6.2547	65.68	-0.2656	0.0105	0.2761	1136.4672	0.119121	-358.862203	-358.853467	-358.852523	-358.896085	29.941
N         -0.02790        1.48900        0.03030
C          0.00140        0.03350        0.00850
C          0.84740       -0.49830        1.18830
C          0.80780       -2.04700        1.24320
C          1.44980       -2.59810        2.43350
N          1.94520       -3.02890        3.38370
C          2.22500       -0.01010        1.07230
N          3.29960        0.39100        0.93140
H          0.87830        1.86440       -0.23440
H         -0.69880        1.83630       -0.64620
H         -1.02150       -0.33380        0.14590
H          0.38530       -0.41270       -0.92490
H          0.42580       -0.09120        2.11310
H         -0.23890       -2.36980        1.23180
H          1.28610       -2.46680        0.35220
