18
gdb 6691	4.94994	0.90649	0.81087	1.9521	76.16	-0.2503	-0.0177	0.2326	1415.318	0.152634	-381.158663	-381.149557	-381.148613	-381.192868	32.296
C          0.27890        1.71670       -0.14480
C          0.20430        0.18660       -0.25820
C          0.64910       -0.49280        1.04260
N         -1.12190       -0.15960       -0.76660
C         -1.87860       -0.94110       -0.12310
N         -3.14360       -1.24520       -0.62290
C         -4.03660       -2.08410       -0.00220
O         -3.83710       -2.65620        1.04390
H          1.29780        2.03890        0.09110
H         -0.02960        2.18400       -1.08320
H         -0.38650        2.07520        0.64820
H          0.90380       -0.11390       -1.05170
H          0.01400       -0.20370        1.88770
H          0.63440       -1.58440        0.96060
H          1.67320       -0.19270        1.28280
H         -1.67360       -1.44480        0.82150
H         -3.39430       -0.80780       -1.49860
H         -4.97570       -2.17770       -0.57980
