16
gdb 1283	7.81861	1.18276	1.05662	4.1238	58.9	-0.2453	0.0284	0.2737	1099.2691	0.134589	-362.935404	-362.926652	-362.925708	-362.969766	29.358
C         -0.08500        1.47970        0.09450
C          0.05280       -0.03020        0.00620
O          0.67880       -0.49020        1.18790
C          0.86920       -1.87120        1.20750
C          1.67460       -2.25130        2.45620
N          1.57410       -3.57880        2.78200
O          2.38060       -1.47460        3.05650
H          0.89790        1.94640        0.20210
H         -0.56250        1.87190       -0.80830
H         -0.69240        1.75860        0.95990
H         -0.93700       -0.50450       -0.11180
H          0.65240       -0.31630       -0.87500
H         -0.09360       -2.41430        1.19410
H          1.43670       -2.21590        0.32390
H          0.83530       -4.15680        2.41950
H          2.03730       -3.88210        3.62360
