14
gdb 1703	4.41885	2.19212	1.88453	2.9229	57.39	-0.2711	0.0198	0.2909	710.0499	0.113327	-324.569062	-324.562117	-324.561173	-324.600037	24.612
C         -0.11190        1.56820       -0.00720
C         -0.01210        0.03930        0.00130
C          1.18030       -0.52770       -0.82760
O          1.93180       -0.79890        0.36710
C          0.79200       -0.54180        1.20400
C         -1.30590       -0.58160       -0.25020
N         -2.33190       -1.07580       -0.44980
H          0.87470        1.99940        0.18440
H         -0.46930        1.93060       -0.97500
H         -0.80200        1.91860        0.76550
H          0.94630       -1.43980       -1.38910
H          1.68050        0.19320       -1.48320
H          1.01330        0.16900        2.00740
H          0.36980       -1.46070        1.62730
