14
gdb 20423	6.36229	1.55055	1.36582	2.5227	63.25	-0.2428	0.0143	0.2571	877.3033	0.110508	-374.895204	-374.888743	-374.887799	-374.927173	23.462
C          0.30820        1.64800        0.13420
C          1.09500        0.49990       -0.37220
N         -0.28040        0.30270        0.14970
C         -0.38600       -0.30540        1.40170
N          0.03310        0.11790        2.58240
C         -0.36610       -0.88280        3.41770
N         -0.99800       -1.88900        2.83970
N         -1.00340       -1.49650        1.53950
H          0.59150        2.06380        1.09530
H         -0.16560        2.33110       -0.56350
H          1.20100        0.32670       -1.43820
H          1.90950        0.14090        0.24980
H         -0.18640       -0.86550        4.48240
H         -1.44600       -2.05620        0.82950
