17
gdb 4159	4.42626	1.21216	1.00665	1.0274	69.01	-0.2465	-0.0016	0.245	1162.8623	0.140324	-400.937232	-400.928673	-400.927728	-400.970589	30.55
C         -0.10120        1.51460        0.04210
C          0.31080        0.04880       -0.11850
C          0.76200       -0.56590        1.19840
O         -0.30430       -0.63720        2.19340
C         -0.19650       -2.07510        2.31460
C          0.89640       -2.06910        1.27720
N          1.63420       -2.89060        0.66640
O          1.36680       -4.20780        1.07950
H          0.73840        2.12730        0.38860
H         -0.45000        1.93030       -0.90760
H         -0.90910        1.60700        0.77340
H         -0.52450       -0.54050       -0.51370
H          1.13620       -0.04790       -0.83450
H          1.62540       -0.01730        1.60260
H          0.10850       -2.39500        3.31920
H         -1.12000       -2.59840        2.03680
H          1.98680       -4.71890        0.54800
