15
gdb 2426	4.2257	3.47868	2.51903	1.3274	60.97	-0.2545	0.0802	0.3347	587.7217	0.125875	-308.44089	-308.435265	-308.43432	-308.46981	22.903
O         -0.06270        1.33720        0.04350
C          0.05750       -0.03900        0.05610
C          0.77140       -0.95170        1.07410
C          0.08980       -1.90770        0.07150
C         -1.17180       -0.98770       -0.08120
C         -1.08740       -1.00220       -1.62160
C          0.38470       -0.99020       -1.16170
H          0.81650        1.71990       -0.04920
H          1.86720       -0.93970        1.07420
H          0.38150       -0.94770        2.09720
H          0.08560       -2.99530        0.06250
H         -2.04650       -0.99110        0.57070
H         -1.43810       -1.90860       -2.12480
H         -1.44720       -0.10820       -2.13820
H          1.30150       -0.99310       -1.75470
