14
gdb 9138	3.73396	0.92049	0.7942	2.1589	68.63	-0.2561	0.0101	0.2662	1392.2483	0.103509	-382.447249	-382.437832	-382.436888	-382.48283	31.966
O          0.29940        0.85450        0.81180
C         -0.16210        0.30430       -0.41450
C         -1.44210       -0.35960       -0.20430
C         -2.50090       -0.91220       -0.05840
C         -3.77260       -1.62060        0.14050
O         -3.58460       -2.98440        0.50710
C         -4.62640       -0.90450        1.10090
C         -5.32480       -0.34580        1.90250
H          1.14100        1.28670        0.63370
H         -0.29070        1.08450       -1.18250
H          0.55520       -0.42710       -0.82150
H         -4.29880       -1.67040       -0.82180
H         -3.11040       -2.99010        1.34700
H         -5.94230        0.15410        2.60730
