18
gdb 18791	3.41089	2.33058	2.07681	1.6964	70.12	-0.2345	0.0796	0.3142	763.4246	0.155445	-347.757902	-347.751479	-347.750535	-347.788097	26.167
C         -0.17070        1.57000        0.10740
C          0.06140        0.07280       -0.01060
C          0.74570       -0.54340       -1.27100
C          2.09000        0.13780       -1.64850
C          2.75580       -0.54460       -0.43360
O          2.40530        0.10890        0.80870
C          1.14430       -0.59880        0.87250
C          1.54520       -1.51460       -0.31590
H          0.77910        2.11100        0.09490
H         -0.79260        1.94300       -0.71390
H         -0.67820        1.81510        1.04710
H         -0.87530       -0.47700        0.15110
H          0.09730       -0.86950       -2.08440
H          2.48140       -0.28480       -2.58040
H          2.13900        1.22870       -1.70190
H          3.81420       -0.81120       -0.46860
H          0.90150       -0.90310        1.89330
H          1.56220       -2.60060       -0.33900
