18
gdb 17076	6.34426	1.03306	0.98915	2.4394	68.46	-0.2451	0.0783	0.3234	1211.3908	0.153579	-384.895493	-384.887534	-384.88659	-384.929098	28.241
C         -0.10230        1.58080        0.15110
C         -0.12250        0.08110        0.32470
C         -1.27790       -0.73700       -0.05920
O         -0.11010       -0.69480       -0.88050
C          1.29480        2.09310       -0.16590
C          1.54230        3.61700       -0.11910
C          2.58650        3.26950        0.96040
O          2.21730        1.87510        0.93340
H         -0.78250        1.86130       -0.66260
H         -0.45790        2.06090        1.07190
H          0.54170       -0.29960        1.10070
H         -1.46450       -1.68550        0.44270
H         -2.16090       -0.25370       -0.47680
H          1.66520        1.60880       -1.07940
H          1.92410        4.07160       -1.03410
H          0.68890        4.19590        0.24140
H          3.63160        3.41960        0.66070
H          2.43690        3.71510        1.95080
