15
gdb 1657	4.84899	1.73711	1.36438	1.731	53.94	-0.2754	-0.0401	0.2353	864.0085	0.122466	-382.804482	-382.796345	-382.795401	-382.83716	28.54
C         -0.19730        1.53190        0.09020
C          0.04960        0.02390       -0.05360
O          0.83190       -0.23120       -1.18960
C          0.70850       -0.57980        1.18140
O          1.74220       -1.21190        1.07010
C          0.07550       -0.42380        2.55250
O          0.75890       -1.16230        3.52100
H          0.74100        2.05840        0.28800
H         -0.60930        1.90980       -0.84830
H         -0.90850        1.75150        0.89200
H         -0.93060       -0.47860       -0.14920
H          1.56360       -0.79200       -0.88950
H          0.06430        0.65090        2.80140
H         -0.97950       -0.73460        2.49070
H          1.53300       -1.53140        3.06880
