14
gdb 18924	3.57207	2.68491	2.06773	3.1577	60.26	-0.2172	-0.0202	0.197	674.5906	0.110434	-378.65613	-378.650724	-378.64978	-378.685481	22.151
O          0.00460        0.09770       -0.01420
C         -0.01890        1.29360        0.01500
C         -1.17990        2.30520       -0.03170
N         -0.89630        2.91990        1.32340
C          0.26850        3.53170        0.62360
C         -0.37530        3.46400       -0.77940
N          0.89070        2.94500       -1.34510
C          1.10710        2.33960        0.01500
H         -2.18460        1.96240       -0.26320
H         -1.57990        3.65680        1.49360
H          0.79020        4.38080        1.05910
H         -0.91030        4.25810       -1.30060
H          0.79450        2.25560       -2.09270
H          2.11580        2.06160        0.30890
