16
gdb 14190	2.80935	2.24823	2.19886	0.9309	64.52	-0.2328	0.0619	0.2947	755.6654	0.130008	-383.663401	-383.656408	-383.655464	-383.693981	27.928
O          0.07080        1.32010        0.11970
C          0.06360       -0.05590       -0.02540
C          0.63660       -0.93050       -1.16000
C          0.09630       -1.93090       -0.11270
C          0.52950       -1.02570        1.09500
C         -0.86570       -1.10170        1.75630
C         -1.14060       -1.05950        0.23880
O         -2.34050       -1.14580       -0.44490
H         -0.36390        1.70580       -0.64880
H          0.11360       -0.90410       -2.12070
H          1.72150       -0.90400       -1.30070
H          0.12110       -3.01800       -0.12420
H          1.51180       -1.02740        1.56140
H         -1.11390       -2.03270        2.27500
H         -1.17320       -0.22990        2.34160
H         -2.92100       -0.44730       -0.12310
