8
gdb 773	10.00708	3.92257	2.82346	3.6429	37.11	-0.2663	-0.0625	0.2038	416.0147	0.050629	-333.411326	-333.406666	-333.405722	-333.439115	16.477
N          0.00790        1.36870        0.15380
C         -0.04110        0.01180        0.04130
N         -1.12050       -0.72480       -0.00020
O         -0.62560       -2.00460       -0.04360
N          0.74290       -1.96350       -0.03450
N          1.11120       -0.75910        0.01690
H          0.86620        1.79130       -0.16400
H         -0.83080        1.86200       -0.10960
