22
gdb 8944	3.04633	1.15254	0.89077	1.656	74.68	-0.2577	0.077	0.3347	1328.4935	0.198006	-387.33273	-387.322235	-387.32129	-387.368075	37.807
C         -0.23550        1.47520       -0.00470
C          0.03450       -0.03640       -0.04310
C          0.83370       -0.37000       -1.30930
O          0.02520       -0.06800       -2.43990
C          0.74460       -0.57350        1.22670
C          0.23370        0.05700        2.53090
C          0.62320       -2.09940        1.32750
O          1.48500       -2.54800        2.36630
H          0.69020        2.03490        0.17840
H         -0.64030        1.79870       -0.96610
H         -0.95010        1.74530        0.77610
H         -0.93450       -0.54860       -0.13850
H          1.76110        0.22720       -1.31430
H          1.12860       -1.42890       -1.32140
H          0.55450       -0.19960       -3.23140
H          1.81800       -0.34800        1.14240
H         -0.85300       -0.06080        2.62470
H          0.70130       -0.43880        3.38430
H          0.46090        1.12400        2.58810
H         -0.42660       -2.36100        1.54270
H          0.88930       -2.57940        0.37510
H          1.34790       -3.49210        2.48360
