17
gdb 15377	6.02115	0.86313	0.83089	1.9496	65.98	-0.2463	-0.0257	0.2206	1349.3347	0.141003	-400.970928	-400.962167	-400.961223	-401.005705	30.325
O         -0.11370        1.29520       -0.72260
C          0.07650        0.18330        0.13460
C         -1.23800       -0.51180        0.40680
N         -1.82440       -1.20580       -0.75720
C         -1.44610       -1.98640        0.43570
C         -0.35580       -3.02750        0.26150
C         -0.90040       -4.27100       -0.41420
O         -0.79730       -5.38910        0.01970
H         -0.54510        0.94850       -1.51280
H          0.80730       -0.52110       -0.28680
H          0.49530        0.57750        1.06640
H         -1.92280        0.07250        1.01930
H         -2.82990       -1.06670       -0.79330
H         -2.26190       -2.31970        1.07640
H          0.43410       -2.62740       -0.38420
H          0.08410       -3.31110        1.22210
H         -1.42530       -4.06880       -1.37470
