18
gdb 12223	2.58787	1.94767	1.72974	3.0606	67.59	-0.2509	-0.0379	0.213	882.6301	0.152987	-384.941757	-384.933536	-384.932592	-384.974339	30.44
C          0.95360        1.39460        0.19490
C          0.13410        0.11660        0.04700
C          0.67050       -0.89870       -1.00490
C          1.21260       -1.81560        0.15800
C          2.70340       -1.72600        0.27720
O          3.31100       -0.96750        1.00290
C          0.36890       -0.96310        1.15970
O          0.91930       -0.60100        2.39010
H          2.02230        1.18710        0.30150
H          0.82270        2.03800       -0.68160
H          0.63530        1.95390        1.07960
H         -0.92030        0.37590       -0.08630
H         -0.10980       -1.39830       -1.58190
H          1.42210       -0.51400       -1.69960
H          0.94220       -2.87250        0.06430
H          3.26470       -2.40990       -0.39780
H         -0.56930       -1.48290        1.37950
H          1.85500       -0.40680        2.23470
