13
gdb 1049	7.53035	2.17416	1.70529	1.0339	56.25	-0.1935	0.0365	0.23	704.1997	0.102091	-344.468531	-344.462063	-344.461119	-344.500052	22.803
C         -0.11280        1.41570        0.01130
O         -0.01500       -0.00660        0.00180
C         -1.15790       -0.69940        0.01050
C         -1.36930       -2.04390        0.00960
C         -2.79750       -2.19870        0.02100
C         -3.33190       -0.95430        0.02760
O         -2.32420       -0.01390        0.02130
H          0.91440        1.78140        0.00340
H         -0.64520        1.78280       -0.87220
H         -0.62760        1.77200        0.90960
H         -0.61260       -2.80970        0.00210
H         -3.34640       -3.12760        0.02380
H         -4.33190       -0.55770        0.03670
