19
gdb 7375	3.79957	1.08867	0.88605	15.2714	72.95	-0.1663	-0.0183	0.1479	1299.7867	0.16451	-402.163264	-402.153604	-402.15266	-402.198749	33.398
C         -0.00590        1.58740        0.01670
N          0.03950        0.09660       -0.00940
H          0.60160       -0.25740        0.76760
H         -0.89580       -0.29580        0.12350
C          0.62460       -0.52500       -1.29430
C          0.62880       -2.02700       -1.23020
C         -0.74550       -2.68120       -1.32610
C          1.64920       -2.51910       -2.40610
O          2.56230       -1.70040       -2.62400
O          1.37140       -3.62250       -2.87740
H          1.00870        1.96050       -0.12410
H         -0.63620        1.92590       -0.80570
H         -0.41010        1.93440        0.96890
H          0.00380       -0.13420       -2.10590
H          1.65070       -0.16790       -1.40550
H          1.13320       -2.33670       -0.30010
H         -1.37190       -2.56170       -0.42640
H         -1.30650       -2.29140       -2.18410
H         -0.59420       -3.74730       -1.50610
