15
gdb 838	6.96792	1.94593	1.54426	1.4975	64.21	-0.1791	0.0592	0.2383	791.4086	0.126516	-304.73536	-304.728088	-304.727144	-304.766384	26.66
C          0.02250        1.52250        0.00680
C         -0.00490        0.02380        0.01420
C         -0.05970       -0.79740       -1.08620
N         -0.05550       -2.10510       -0.64710
C          0.00360       -2.13220        0.72250
N         -0.03910       -3.37630        1.38930
C          0.04080       -0.82840        1.16350
H          0.93670        1.91820        0.46570
H         -0.02730        1.91220       -1.01450
H         -0.82150        1.94760        0.56340
H         -0.09340       -0.56220       -2.13810
H         -0.19420       -2.92270       -1.21460
H          0.86460       -3.84200        1.39070
H         -0.31390       -3.24810        2.35560
H          0.11340       -0.51470        2.19480
