17
gdb 6405	3.30052	1.22371	0.9388	3.9023	61.06	-0.2363	0.033	0.2693	1190.8864	0.141041	-438.162444	-438.153239	-438.152295	-438.196831	33.095
N          0.41240        0.32550        0.76050
C          0.07220       -0.12460       -0.48020
O          0.62570        0.24690       -1.49730
C         -1.09860       -1.11280       -0.51110
C         -1.11580       -2.17650        0.59150
O         -1.34220       -1.62460        1.89520
C         -2.15100       -3.27770        0.31620
O         -1.94440       -3.94140       -0.91590
H          1.20830        0.93730        0.83700
H         -0.00370       -0.08130        1.58500
H         -2.03680       -0.53990       -0.46610
H         -1.07600       -1.60500       -1.48480
H         -0.12400       -2.64140        0.66430
H         -2.21670       -1.21660        1.89310
H         -2.15790       -3.97160        1.16910
H         -3.15000       -2.82700        0.25000
H         -1.14440       -4.47200       -0.84200
