17
gdb 2553	3.58012	1.94128	1.34942	1.0933	56.52	-0.2501	0.0627	0.3127	891.008	0.146813	-383.966179	-383.957419	-383.956475	-384.000431	30.075
C         -0.09220        1.35430       -0.30420
O         -0.11000        0.04080        0.23240
C         -1.38960       -0.60820        0.17020
C         -1.23960       -1.86180       -0.69290
O         -0.68530       -1.55690       -1.95770
C         -1.83170       -0.91440        1.60190
O         -1.81210        0.24610        2.40990
H          0.92910        1.72960       -0.19550
H         -0.36430        1.35890       -1.36820
H         -0.77810        2.02010        0.23640
H         -2.11420        0.07050       -0.29700
H         -0.62350       -2.60100       -0.15590
H         -2.22080       -2.31320       -0.87260
H          0.16070       -1.13380       -1.77050
H         -2.86020       -1.29030        1.60460
H         -1.18550       -1.70250        2.02100
H         -0.90600        0.57280        2.36540
