19
gdb 6824	3.11573	1.58847	1.38546	4.3892	73.28	-0.2366	0.0321	0.2686	997.3978	0.164295	-365.086298	-365.077466	-365.076522	-365.120109	31.864
C         -0.22810        1.50460        0.13500
C         -0.01900       -0.00300       -0.01290
C         -1.33210       -0.77210        0.13650
C          0.84610       -0.42330       -1.25010
C          1.93190       -0.94900       -0.26940
N          1.07540       -0.53310        0.83670
C          1.27440       -0.62820        2.16690
O          2.26480       -1.10770        2.68470
H          0.72010        2.04180        0.04300
H         -0.90910        1.87090       -0.64070
H         -0.66630        1.74970        1.10810
H         -2.04190       -0.46500       -0.63900
H         -1.16690       -1.84940        0.04560
H         -1.79540       -0.57880        1.10970
H          0.38730       -1.18920       -1.87700
H          1.16290        0.41060       -1.87810
H          2.11990       -2.02690       -0.29750
H          2.89460       -0.42890       -0.29850
H          0.42380       -0.21530        2.74800
