14
gdb 10004	2.69503	1.29615	0.91894	0.9119	76.83	-0.2546	0.0323	0.2869	1241.0684	0.102752	-308.160558	-308.151172	-308.150228	-308.196078	32.217
C         -0.00310        1.50400        0.04330
C         -0.01690        0.04940        0.00610
C         -0.03160       -1.15190       -0.03160
C         -0.04180       -2.62350       -0.06140
C         -1.41390       -3.15780       -0.10720
C         -2.52840       -3.60140       -0.12510
C          0.77440       -3.15130       -1.16850
C          1.45240       -3.58980       -2.05590
H          0.57880        1.91410       -0.78910
H         -1.01800        1.90970       -0.02770
H          0.43980        1.87390        0.97430
H          0.41400       -2.98050        0.87620
H         -3.51650       -3.98990       -0.14940
H          2.04700       -3.97360       -2.84770
