18
gdb 9932	3.0543	1.49775	1.40918	1.8272	75.11	-0.2353	0.0508	0.2861	1003.0075	0.150443	-347.757634	-347.748207	-347.747263	-347.790979	34.695
C         -0.06460        1.54160       -0.03210
C          0.06030        0.03560        0.03120
C          1.38790       -0.65540       -0.15580
O          2.55790        0.10050       -0.26290
C          0.73330       -0.67720        1.21900
C          1.35570        0.12600        2.35310
C          0.13870       -1.92440        1.62310
C         -0.36090       -2.96290        1.97000
H          0.87220        2.03960        0.22540
H         -0.34110        1.85670       -1.04480
H         -0.84190        1.90560        0.64750
H         -0.79320       -0.50290       -0.37020
H          1.40310       -1.59790       -0.70100
H          2.57670        0.49850       -1.13990
H          1.93190        0.96890        1.97210
H          0.58300        0.49790        3.03280
H          2.03360       -0.50940        2.93020
H         -0.79870       -3.88020        2.27610
