10
gdb 3642	9.82529	2.05279	1.69803	2.9231	56.32	-0.2482	-0.019	0.2292	665.1613	0.06865	-318.344936	-318.33941	-318.338465	-318.374141	20.131
C         -0.00050       -1.15040       -0.00370
C         -0.00800        0.05140        0.00310
C         -0.00280        1.46990        0.01090
N         -1.12710        2.18590        0.03000
N         -0.65420        3.44840        0.03080
C          0.69550        3.45160        0.01290
N          1.14860        2.21750       -0.00000
H          0.00510       -2.21230       -0.00970
H         -1.29940        4.22160        0.04380
H          1.28720        4.35460        0.01020
