18
gdb 12027	3.68386	1.71468	1.50954	0.5972	77.32	-0.248	0.0561	0.3042	916.4991	0.152718	-310.60685	-310.599017	-310.598073	-310.638366	30.913
C         -0.08190        1.57200        0.04460
C          0.02810        0.04190        0.03010
C          1.13280       -0.59830       -0.91060
C          1.76210       -1.28320        0.30630
C          2.18760       -0.25670        1.31500
C          0.73540       -0.63750        1.23360
C         -1.27910       -0.55560       -0.20940
C         -2.36420       -1.03950       -0.39770
H          0.89120        2.03490        0.22980
H         -0.45710        1.93840       -0.91590
H         -0.77410        1.90180        0.82520
H          0.69720       -1.28790       -1.63370
H          1.76980        0.11980       -1.43810
H          2.14320       -2.29640        0.32080
H          2.70440       -0.64390        2.18750
H          2.53820        0.72150        0.99560
H          0.20420       -1.06630        2.07430
H         -3.32060       -1.46800       -0.56750
