16
gdb 6271	3.51058	1.28576	1.08357	2.0644	62.89	-0.2631	-0.0824	0.1807	1121.5814	0.127115	-420.918571	-420.909512	-420.908568	-420.95296	30.952
C         -0.17380        1.49710       -0.11440
C          0.03890       -0.00610        0.02300
C         -1.24880       -0.81300       -0.01110
O          0.84050       -0.48370       -1.10140
C          2.15830       -0.36010       -1.00250
O          2.77860        0.11190       -0.07980
C          2.89150       -0.90610       -2.23540
O          2.35510       -1.36660       -3.20280
H          0.78020        2.02780       -0.08100
H         -0.67970        1.72940       -1.05650
H         -0.79530        1.85990        0.70990
H          0.60720       -0.21640        0.93350
H         -1.79610       -0.63100       -0.94090
H         -1.03960       -1.88320        0.06250
H         -1.88860       -0.52650        0.82870
H          3.99040       -0.81560       -2.11960
