13
gdb 21630	3.51101	2.43903	1.43923	1.3003	65.74	-0.2091	-0.0353	0.1738	792.8941	0.099114	-390.985319	-390.978701	-390.977756	-391.015876	25.342
N          0.04110        1.29660       -0.16790
C         -0.02430       -0.03360       -0.03060
N         -1.16210       -0.66860        0.06250
C         -1.09020       -2.02720        0.19960
N         -0.02690       -2.76860        0.24900
N          1.14630       -2.07550        0.14890
C          1.29010       -0.71960        0.00670
N          2.36980       -0.02770       -0.09100
H          0.95740        1.71250       -0.23390
H         -0.80240        1.84150       -0.20340
H         -2.03430       -2.55510        0.27710
H          1.96930       -2.65760        0.18790
H          3.21090       -0.60340       -0.05330
