17
gdb 1285	8.05978	1.09653	0.98888	1.5782	61.93	-0.2465	-0.0117	0.2348	1175.3083	0.145053	-346.867207	-346.858197	-346.857253	-346.901901	29.661
C          0.01040        1.36710        0.09000
O          0.13260       -0.03450        0.06510
C          0.62240       -0.51660       -1.16800
C          0.70980       -2.03210       -1.07280
C          1.22750       -2.68450       -2.34470
C          1.34240       -4.19840       -2.32550
O          1.53100       -2.03200       -3.31850
H          0.98000        1.86550       -0.06880
H         -0.68920        1.73080       -0.67930
H         -0.37230        1.64560        1.07500
H         -0.04100       -0.22440       -1.99680
H          1.61290       -0.09090       -1.39210
H          1.35800       -2.31960       -0.23450
H         -0.27590       -2.45140       -0.83180
H          0.36590       -4.65270       -2.12350
H          1.72180       -4.55320       -3.28440
H          2.01330       -4.51990       -1.52090
