16
gdb 11725	4.9116	1.41643	1.23774	2.3161	66.93	-0.2463	-0.0203	0.226	964.5639	0.129755	-383.721063	-383.713526	-383.712582	-383.752898	28.16
O         -0.11930        1.43710       -0.11830
C         -0.02680        0.03860        0.03370
C          0.27950       -0.53890        1.46040
C         -1.06520       -1.26120        1.43040
C         -2.19130       -0.27110        1.22450
C         -1.39170       -0.64500        0.02960
C         -1.30120       -2.65400        1.81640
O         -0.48170       -3.36970        2.34410
H          0.76870        1.80500       -0.06230
H          0.63880       -0.40220       -0.71930
H          1.12730       -1.22540        1.48090
H          0.39300        0.20970        2.24990
H         -3.19250       -0.68950        1.26120
H         -2.09390        0.71740        1.66230
H         -1.83420       -1.15000       -0.82010
H         -2.32170       -3.02940        1.56650
