17
gdb 12055	3.49589	1.84408	1.52521	3.4592	68.04	-0.2417	-0.0296	0.2121	877.7258	0.141235	-363.821461	-363.813816	-363.812872	-363.85341	28.603
C         -0.04140        1.67420        0.31940
C          0.01160        0.15530        0.14020
C          0.96600       -0.48290       -0.90230
N          1.61210       -1.37450        0.12950
C          2.24010       -0.45990        1.09810
C          0.78260       -0.67230        1.18840
C         -1.40990       -0.37260        0.02480
O         -1.84050       -1.05560       -0.86620
H          0.95040        2.08050        0.53240
H         -0.41850        2.16090       -0.58660
H         -0.70170        1.95210        1.14920
H          0.43330       -1.07740       -1.64470
H          1.67080        0.19370       -1.39590
H          2.85990       -0.97300        1.82740
H          2.64400        0.48780        0.74860
H          0.32410       -1.21740        2.00910
H         -2.06410       -0.06160        0.87370
