18
gdb 19873	3.33834	2.16453	1.96314	2.1227	70.72	-0.2112	0.0699	0.2812	793.4377	0.156181	-343.928302	-343.921506	-343.920562	-343.958917	27.205
C         -0.29300        1.58040        0.10560
C         -0.00950        0.10260       -0.04460
C          0.61530       -0.61360       -1.19840
C          1.48360        0.03700       -2.24620
N          1.71730        1.49600       -2.13700
C          2.70000        0.55480       -1.56680
C          2.52670        0.28520       -0.07150
N          1.30980       -0.54290        0.11700
H          0.41840        2.20910       -0.42230
H         -1.29270        1.79730       -0.28720
H         -0.29870        1.84130        1.17100
H         -0.76240       -0.49440        0.47430
H          0.22570       -1.59060       -1.47940
H          1.52250       -0.42200       -3.22820
H          2.06200        1.84100       -3.03020
H          3.68910        0.49770       -2.01130
H          3.37940       -0.29550        0.29600
H          2.47790        1.20990        0.51360
