15
gdb 1255	8.68692	1.1934	1.06309	2.0056	64.97	-0.247	-0.0115	0.2355	1089.4461	0.123635	-341.878745	-341.870435	-341.869491	-341.912175	27.814
C          0.12060        1.73120        0.60830
N         -0.01250        0.36020        1.05710
C          0.15130       -0.55260        0.19640
N          0.03870       -1.88930        0.55280
C          0.20390       -2.94080       -0.33310
C          0.03100       -4.31080        0.29670
O          0.46340       -2.76610       -1.50470
H          0.90930        2.23070        1.18310
H          0.35600        1.82870       -0.46310
H         -0.80960        2.27540        0.80950
H          0.38530       -0.41300       -0.86280
H         -0.17710       -2.07090        1.52230
H         -0.97040       -4.41730        0.72720
H          0.17760       -5.07000       -0.47030
H          0.75700       -4.46280        1.10250
