15
gdb 11714	5.72098	1.36258	1.24194	4.2367	66.88	-0.2715	0.017	0.2885	952.0751	0.119387	-362.646903	-362.639657	-362.638713	-362.678305	27.303
O         -0.11100        1.43980       -0.09240
C         -0.02020        0.04130        0.03370
C          0.26520       -0.56610        1.45490
C         -1.09130       -1.28690        1.38160
C         -2.19490       -0.27000        1.19750
C         -1.38000       -0.64740        0.00140
C         -1.33500       -2.62490        1.80590
N         -1.51490       -3.71460        2.15390
H          0.77900        1.80650       -0.08210
H          0.66070       -0.38630       -0.71240
H          1.11980       -1.24410        1.46520
H          0.35820        0.15780        2.26920
H         -3.20140       -0.67220        1.21550
H         -2.08180        0.71080        1.64870
H         -1.82400       -1.11970       -0.86520
