15
gdb 18309	3.77168	2.23886	1.45264	1.6641	69.13	-0.2245	-0.0016	0.2228	830.2227	0.121551	-358.838212	-358.831679	-358.830735	-358.869106	24.606
N          0.09320        1.37960        0.02090
C          0.08120        0.11280        0.07700
C          1.19530       -0.97700       -0.02050
N          0.59970       -2.27830        0.38660
C         -0.63150       -1.98170        0.50680
C         -2.00130       -2.39260        1.03210
C         -2.35730       -0.86030        0.90340
N         -1.03950       -0.68790        0.25340
H          1.04470        1.72270       -0.10760
H          1.57520       -1.03370       -1.04770
H          2.04140       -0.73000        0.62890
H         -2.57250       -3.04520        0.36970
H         -2.00650       -2.80160        2.04290
H         -3.20330       -0.60810        0.26160
H         -2.44200       -0.33420        1.85800
