22
gdb 7008	2.5013	1.80169	1.44968	1.4962	77.41	-0.2488	0.0695	0.3183	1019.9059	0.198464	-350.206431	-350.196981	-350.196037	-350.239473	36.298
C         -0.86800        1.17340       -0.08840
C          0.07030       -0.02390       -0.14310
C          1.45740        0.12820       -0.82600
C          2.02830       -0.84480        0.23230
O          3.33840       -0.68390        0.71780
C          0.79350       -0.54500        1.15280
C          1.10390        0.55660        2.17030
C          0.16200       -1.74880        1.84480
H         -0.38010        2.05580        0.33810
H         -1.21050        1.44220       -1.09400
H         -1.75770        0.95950        0.51470
H         -0.45980       -0.86920       -0.59770
H          1.55410       -0.14220       -1.88020
H          1.85950        1.13950       -0.69110
H          1.98030       -1.87830       -0.12590
H          3.45230        0.23760        0.97190
H          1.52210        1.45780        1.70780
H          0.20050        0.86240        2.70790
H          1.82660        0.19600        2.90990
H          0.82510       -2.15200        2.61930
H         -0.78570       -1.48200        2.32800
H         -0.04360       -2.55320        1.13020
