19
gdb 2795	3.94983	1.9899	1.50464	1.3193	67.2	-0.2605	0.0782	0.3387	869.3186	0.171526	-310.905299	-310.897339	-310.896395	-310.937185	29.452
C         -0.56600        1.40090       -0.08600
C          0.08020        0.02200       -0.03880
C          1.48940       -0.18160       -0.66390
C          1.83160       -1.14810        0.50210
C          0.63120       -0.56760        1.30340
C          1.04520        0.45830        2.34540
O          1.70020       -0.24220        3.39550
H          0.08990        2.17330        0.32950
H         -0.78960        1.68480       -1.12060
H         -1.50850        1.42590        0.47260
H         -0.61130       -0.70920       -0.47270
H          1.53630       -0.57390       -1.68300
H          2.08460        0.73680       -0.62550
H          1.67590       -2.19510        0.22950
H          2.81370       -1.05520        0.97070
H         -0.01250       -1.30360        1.79450
H          1.71600        1.21070        1.89900
H          0.15800        0.99420        2.71950
H          1.99370        0.40070        4.04740
