18
gdb 14270	2.94426	2.65226	1.80222	1.5339	72.07	-0.2355	0.0304	0.266	794.3698	0.156672	-347.803174	-347.796788	-347.795843	-347.833309	26.122
C          0.01130        1.50630        0.44160
C          1.46850        1.46310       -0.06260
C          2.52370        1.23590        1.00960
C          2.25090        0.12430        1.99070
C          1.28230       -0.79470        1.99580
C          0.15240       -1.01380        1.02220
C         -0.02500        0.04620       -0.05470
O          1.20020        0.24610       -0.80530
H         -0.14900        1.68110        1.50670
H         -0.62340        2.17190       -0.14560
H          1.77650        2.27320       -0.73310
H          3.48600        1.03810        0.51450
H          2.66860        2.17720        1.56120
H          2.97770        0.07330        2.80020
H          1.29950       -1.51890        2.80910
H          0.29650       -1.98780        0.53140
H         -0.79210       -1.10610        1.57960
H         -0.85390       -0.22230       -0.71920
