14
gdb 11206	3.58282	1.8079	1.43294	4.5172	59.45	-0.2394	-0.0469	0.1926	860.991	0.108115	-415.881901	-415.8748	-415.873856	-415.913798	25.479
N         -0.21550        1.14790        0.34700
C         -0.07040       -0.06170        0.02210
N         -1.02270       -0.83740       -0.63610
C         -0.67400       -2.23290       -0.51690
C          0.85440       -2.12950       -0.31200
O          1.04750       -0.82940        0.24090
C         -1.38890       -2.94940        0.62610
O         -2.26270       -2.44970        1.28220
H          0.62820        1.50290        0.79050
H         -1.97730       -0.58310       -0.42250
H         -0.89480       -2.80210       -1.43150
H          1.25330       -2.87520        0.38160
H          1.38670       -2.20790       -1.26590
H         -1.05480       -3.99930        0.79370
