14
gdb 13838	4.1556	1.74364	1.37852	3.2118	57.35	-0.248	0.0115	0.2595	861.8555	0.108679	-415.904932	-415.897665	-415.896721	-415.937285	26.041
N          0.48970        0.14980        0.88500
C         -0.13550        0.41700       -0.28640
O          0.21950        1.26000       -1.08720
C         -1.39330       -0.41440       -0.56180
C         -1.37000       -1.11100       -1.94970
N         -1.33090       -2.55060       -1.64310
C         -1.42960       -2.64640       -0.38810
O         -1.53160       -1.51690        0.37290
H          1.32370        0.66180        1.11930
H          0.15800       -0.58590        1.48440
H         -2.25610        0.24380       -0.43180
H         -2.26190       -0.88930       -2.54310
H         -0.49930       -0.80710       -2.53540
H         -1.45000       -3.56860        0.18140
