13
gdb 2023	7.89837	1.90648	1.77464	4.036	54.55	-0.2756	0.0098	0.2854	708.1423	0.101585	-344.463502	-344.457523	-344.456579	-344.493247	22.537
O          0.11260        0.15850       -0.60460
C         -0.03730        1.20540       -0.06520
C         -1.18290        2.16410        0.27750
C         -0.06450        2.99250        0.89000
C          0.24480        4.44470        0.84140
C          0.04460        3.72850        2.17580
O          0.92740        2.00260        0.50750
H         -1.68540        2.58970       -0.59310
H         -1.91970        1.75130        0.96910
H          1.25750        4.72820        0.57730
H         -0.52520        5.12530        0.49390
H         -0.86220        3.91990        2.73980
H          0.92720        3.54660        2.77880
