15
gdb 18335	3.42493	2.30478	1.58756	5.0866	60.48	-0.2318	0.0128	0.2446	791.9777	0.12159	-399.815409	-399.808906	-399.807961	-399.846416	24.269
O          0.01120        0.05140        0.28300
C          0.00790        1.24870        0.11030
N         -1.07910        2.07980        0.20260
C         -0.88010        3.45790       -0.21450
C          0.65120        3.57750       -0.32230
C          1.43600        3.81050        0.98710
O          1.97030        2.46790        0.96860
C          1.21320        2.14470       -0.21860
H         -1.99120        1.69070        0.38440
H         -1.36410        3.65930       -1.17960
H         -1.29400        4.16360        0.51620
H          0.96810        4.18820       -1.16600
H          2.23280        4.56100        0.93670
H          0.81950        3.99890        1.87550
H          1.83640        1.71840       -1.00880
