12
gdb 1264	8.30661	1.07623	0.95855	5.3033	57.35	-0.2558	-0.0193	0.2366	1120.1118	0.088062	-360.501085	-360.492639	-360.491695	-360.535345	27.15
N         -0.06950        1.33430       -0.02060
C          0.05810       -0.02570       -0.01960
O          1.12950       -0.59830       -0.03960
C         -1.21450       -0.73380       -0.00670
C         -2.23690       -1.37140        0.00550
C         -3.48940       -2.11530        0.01870
O         -3.22100       -3.50750        0.04200
H          0.76950        1.88840        0.03400
H         -0.96460        1.77940        0.08040
H         -4.07490       -1.79980        0.89830
H         -4.07500       -1.82910       -0.87070
H         -4.06790       -3.96540        0.04580
