16
gdb 13974	6.1343	1.07301	1.00002	2.0499	76.46	-0.2311	0.0287	0.2597	1206.3508	0.129025	-346.544145	-346.536083	-346.535139	-346.577801	28.751
C          0.00570        1.48990        0.09480
C         -0.03590        0.03860        0.01120
C         -0.07800       -1.16450       -0.04570
C         -0.08090       -2.58150       -0.15680
C          0.75890       -3.46930       -1.10020
C         -0.40580       -4.51900       -1.08530
C         -1.17120       -3.59060       -0.13500
O         -0.35090       -3.38510        1.01290
H          0.93720        1.88410       -0.32610
H         -0.82690        1.94670       -0.45170
H         -0.05580        1.82480        1.13610
H          0.90860       -3.01990       -2.08370
H          1.71910       -3.78390       -0.68660
H         -0.88340       -4.62680       -2.06180
H         -0.17850       -5.50620       -0.67690
H         -2.24050       -3.46020       -0.01060
