16
gdb 21278	4.67485	1.53255	1.1712	1.9955	68.54	-0.2084	0.0311	0.2394	1010.7672	0.131276	-379.935454	-379.927467	-379.926523	-379.968443	28.002
C         -0.11050        1.39030       -0.16880
O          0.01090       -0.02210       -0.04420
C          0.64400       -0.64470       -1.05340
N          1.13180       -0.00210       -2.10870
N          1.67910       -0.98420       -2.87180
C          2.31400       -0.64150       -4.12130
C          1.53700       -2.20610       -2.30830
C          0.86560       -2.03880       -1.11620
H          0.87400        1.86710       -0.22420
H         -0.67520        1.65950       -1.06790
H         -0.64140        1.72630        0.72320
H          2.68880       -1.55460       -4.58750
H          1.59910       -0.16110       -4.79630
H          3.14960        0.04450       -3.95230
H          1.91880       -3.09250       -2.79100
H          0.57700       -2.78930       -0.40050
