17
gdb 11896	4.8163	1.56172	1.32357	1.0291	71.1	-0.2232	0.029	0.2521	962.6687	0.142534	-363.877012	-363.869488	-363.868544	-363.908969	28.109
C         -0.00260        1.45300        0.02660
C         -0.06430       -0.03430       -0.02170
N         -1.07450       -0.76440        0.23160
C         -0.64410       -2.13210        0.04920
C         -1.20270       -3.20320        0.94590
C         -1.61380       -3.13880       -0.50730
C          0.83200       -2.06360       -0.36540
O          1.10410       -0.64750       -0.37930
H          0.76150        1.77780        0.74000
H          0.27760        1.85280       -0.95320
H         -0.97290        1.85100        0.32140
H         -0.53530       -4.00080        1.25800
H         -1.92400       -2.89080        1.69210
H         -2.61140       -2.78310       -0.73760
H         -1.22690       -3.89240       -1.18640
H          1.51230       -2.54150        0.34790
H          1.02740       -2.46510       -1.36570
