17
gdb 1176	3.87909	1.85138	1.72368	4.6215	64.23	-0.2604	0.0314	0.2918	828.7651	0.147352	-305.913756	-305.905222	-305.904277	-305.945951	30.976
C         -0.08380        1.54910        0.13330
C         -0.00910        0.02760       -0.01440
C          0.73760       -0.46750       -1.29130
C          0.02530       -0.02280       -2.58380
N          2.14550       -0.05000       -1.38070
C          0.73050       -1.94660       -1.24350
N          0.70150       -3.09960       -1.17570
H          0.91170        2.00520        0.13680
H         -0.66730        2.01420       -0.66650
H         -0.56300        1.80940        1.08130
H          0.50230       -0.40020        0.85610
H         -1.01970       -0.39700       -0.01470
H          0.04760        1.06760       -2.66600
H          0.53330       -0.44300       -3.45360
H         -1.01770       -0.34820       -2.58740
H          2.18990        0.95890       -1.48690
H          2.63810       -0.28250       -0.52290
