17
gdb 19444	3.23752	2.06484	1.58048	1.7831	68.37	-0.2279	0.065	0.2929	857.3432	0.142054	-363.791552	-363.784344	-363.7834	-363.822971	27.898
C          0.10630        1.52110       -0.09350
C          1.31040        0.61060        0.11450
C         -0.05960        0.03870       -0.05020
O         -0.74600       -0.61730        1.01700
C         -1.29810       -1.61000        0.11280
C         -0.59760       -0.94280       -1.06610
C         -0.99320       -0.73300       -2.47050
N          0.11590       -1.64760       -2.11690
H         -0.25370        2.07750        0.76520
H         -0.00200        2.03290       -1.04480
H          2.02610        0.50240       -0.69570
H          1.74300        0.56640        1.10810
H         -0.94430       -2.62080        0.34300
H         -2.39360       -1.58680        0.10600
H         -1.87660       -1.22250       -2.87230
H         -0.76130        0.22660       -2.92720
H          1.01650       -1.20650       -2.29270
