22
gdb 7975	3.23054	1.57499	1.19799	0.2404	84.36	-0.2247	0.0338	0.2585	1112.4994	0.200129	-313.100464	-313.091553	-313.090609	-313.133311	34.125
C         -0.11920        1.55740       -0.08870
C          0.09170        0.04580       -0.01850
C          0.92770       -0.54560       -1.18040
C          1.54950       -1.78720       -0.57400
C          2.21510       -2.82920       -1.41610
C          1.43660       -1.76700        0.75600
C          0.77160       -0.51100        1.27560
C          1.79560        0.42720        1.94110
H          0.83060        2.10170       -0.06680
H         -0.63410        1.83270       -1.01560
H         -0.73050        1.91840        0.74590
H         -0.89330       -0.43500       -0.06880
H          0.31430       -0.76270       -2.06410
H          1.70980        0.15150       -1.51960
H          3.03420       -2.39760       -2.00640
H          2.62670       -3.63970       -0.80800
H          1.51290       -3.26650       -2.13780
H          1.83680       -2.52780        1.42010
H          0.00450       -0.74350        2.02630
H          2.58040        0.72590        1.23800
H          1.32130        1.33430        2.32940
H          2.28440       -0.07710        2.78150
