18
gdb 11056	3.35931	2.27176	1.94167	1.4797	70.62	-0.2377	0.0201	0.2578	777.6067	0.156188	-347.812584	-347.806007	-347.805063	-347.842675	27.582
O         -0.07050        1.39060        0.00110
C          0.00470       -0.01220       -0.02420
C          0.69980       -0.67900        1.21380
C          0.17800       -2.14450        1.15450
C         -0.75120       -2.12820       -0.11090
C         -1.36680       -0.71480        0.01350
C          0.16110       -1.92340       -1.31190
C          0.61380       -0.66800       -1.26050
H          0.82380        1.73990        0.07120
H          1.79000       -0.60950        1.15690
H          0.37490       -0.16560        2.12390
H          0.98030       -2.88010        1.06100
H         -0.39950       -2.39620        2.04920
H         -1.44070       -2.97050       -0.16940
H         -1.90550       -0.54580        0.95150
H         -1.99520       -0.43910       -0.83590
H          0.46080       -2.70550       -1.99920
H          1.35710       -0.19580       -1.89240
