14
gdb 4591	5.64257	1.48246	1.17401	0.0009	67.59	-0.1982	-0.0021	0.1961	945.5063	0.108549	-382.607823	-382.601075	-382.60013	-382.638332	26.67
O          0.03630        1.37550        0.14800
C          0.05420        0.01120        0.04230
C          0.05620       -0.65420       -1.18440
C          0.07470       -2.04400       -1.23390
C          0.09140       -2.78590       -0.05430
O          0.10930       -4.15030       -0.16000
C          0.08940       -2.12050        1.17240
C          0.07080       -0.73070        1.22190
H          0.02590        1.75610       -0.73580
H          0.04330       -0.08450       -2.11000
H          0.07640       -2.56700       -2.18320
H          0.11920       -4.53080        0.72380
H          0.10230       -2.69020        2.09810
H          0.06910       -0.20770        2.17130
