18
gdb 15153	9.1221	0.6596	0.64721	1.7941	77.58	-0.2428	0.0623	0.3051	1738.8758	0.151689	-347.761059	-347.751637	-347.750693	-347.797319	31.762
C          0.04160        1.47310       -0.00270
C         -0.00950        0.02020       -0.08680
C         -0.04000       -1.18120       -0.16290
C         -0.10780       -2.63560       -0.24140
C         -1.42930       -3.21030        0.31360
C         -1.45950       -4.71580        0.23510
C         -2.67670       -5.46400       -0.09940
O         -1.64250       -5.28210       -1.06780
H          0.91830        1.81000        0.56190
H          0.09460        1.92910       -0.99760
H         -0.84660        1.87550        0.49730
H          0.00330       -2.96290       -1.28270
H          0.73660       -3.07550        0.30690
H         -1.55500       -2.89720        1.35690
H         -2.27050       -2.79830       -0.25300
H         -0.70020       -5.23040        0.82870
H         -2.80630       -6.48320        0.26250
H         -3.60090       -4.92110       -0.29510
