15
gdb 7685	4.27364	1.61971	1.54704	3.1264	63.02	-0.2501	0.0163	0.2663	861.3438	0.117315	-399.763159	-399.755707	-399.754763	-399.794457	28.485
C         -0.01060        1.57890        0.06680
C          0.04940        0.07230        0.07780
O         -1.11060       -0.57570       -0.37080
C          1.29420       -0.72500       -0.16660
O          2.45350       -0.03460        0.36090
C          1.93080       -0.14070        1.65710
N          2.44190        0.16350        2.75870
C          0.65440       -0.76700        1.21100
H          0.92760        2.01890        0.40790
H         -0.19910        1.94070       -0.95170
H         -0.82310        1.92850        0.70990
H         -1.28190       -0.28270       -1.27310
H          1.44940       -1.49150       -0.91380
H          3.37890        0.55140        2.63750
H          0.07770       -1.52740        1.71550
