18
gdb 9645	4.28406	1.19906	1.07219	1.7745	75.56	-0.2571	0.0291	0.2862	1167.0486	0.15023	-347.759745	-347.750461	-347.749516	-347.793607	33.624
C         -0.29930        1.49650        0.19150
C          0.27610        0.12830       -0.19870
C          1.01960       -0.50460        0.95280
O          0.24960       -1.03490        2.03470
C          1.05400       -1.95570        1.26720
C          0.29680       -2.99980        0.47170
C          2.22070       -2.46360        1.95830
C          3.18840       -2.91300        2.51220
H          0.49310        2.18690        0.49980
H         -0.83260        1.95130       -0.64810
H         -0.99870        1.39440        1.02650
H         -0.53070       -0.52740       -0.53670
H          0.97320        0.24010       -1.03910
H          1.88860        0.06700        1.28790
H         -0.59470       -2.57470        0.00960
H          0.93740       -3.42500       -0.30680
H         -0.01410       -3.81310        1.13390
H          4.04360       -3.30000        3.00890
