16
gdb 5830	3.01221	1.66305	1.39684	2.5881	67.96	-0.2615	-0.0597	0.2018	954.8262	0.125496	-383.71973	-383.710193	-383.709249	-383.755873	33.974
C          0.19650        1.58340        0.25650
C         -0.02670        0.08380        0.00480
C          0.54530       -0.77190        1.14600
O         -1.40460       -0.19870       -0.20300
C          0.71020       -0.29750       -1.29370
O          1.91090       -0.15460       -1.38840
C         -0.07380       -0.82900       -2.39020
C         -0.66560       -1.27580       -3.33840
H          1.26430        1.81020        0.29390
H         -0.26500        2.17440       -0.53940
H         -0.25640        1.87420        1.21110
H          0.09150       -0.47680        2.09890
H          0.32830       -1.82950        0.97250
H          1.62690       -0.63860        1.21900
H         -1.87800        0.03530        0.60200
H         -1.19730       -1.66970       -4.17030
