22
gdb 7191	4.88306	0.718	0.65301	2.6598	75.28	-0.2615	0.0766	0.3381	1714.302	0.198154	-387.332486	-387.321773	-387.320829	-387.368899	37.258
C         -0.11630        1.64830        0.01200
C         -0.01620        0.11380        0.00280
C          0.68350       -0.41220       -1.26340
C         -0.04070       -0.11520       -2.57170
O          0.65830       -0.79100       -3.60850
C          0.70750       -0.42570        1.24970
C          0.00830       -0.14280        2.57460
O          0.72690       -0.82980        3.59060
H          0.88210        2.10240        0.00500
H         -0.65830        2.02490       -0.86020
H         -0.64160        2.01550        0.89840
H         -1.03980       -0.29160        0.01040
H          1.70080       -0.00410       -1.32460
H          0.79190       -1.50100       -1.19230
H         -1.08540       -0.46370       -2.50440
H         -0.07070        0.96800       -2.76340
H          0.23800       -0.57250       -4.44520
H          0.81430       -1.51370        1.16490
H          1.72580       -0.01820        1.29580
H         -0.01780        0.93820        2.77850
H         -1.03750       -0.49070        2.52350
H          0.32270       -0.62040        4.43750
