16
gdb 18628	3.18811	2.13512	1.77412	3.8203	64.79	-0.2337	0.0175	0.2512	800.1311	0.13232	-379.929445	-379.922351	-379.921407	-379.96062	26.828
C         -0.18330        1.51620        0.08070
N          0.04800        0.08540       -0.07170
C          0.66490       -0.48150       -1.25150
C          1.47590        0.41970       -2.18300
N          2.52830        0.93120       -1.32390
C          2.58560        0.38500       -0.06480
O          3.44320        0.59390        0.76490
C          1.37410       -0.51620        0.06960
H          0.59620        2.16620       -0.33880
H         -1.13650        1.76070       -0.39830
H         -0.27460        1.73730        1.14770
H          0.16970       -1.34460       -1.68580
H          1.87910       -0.16950       -3.01670
H          0.86890        1.22940       -2.60910
H          3.21210        1.61000       -1.61920
H          1.45690       -1.37710        0.72400
