15
gdb 11497	3.68381	1.37681	1.11851	1.8988	63.23	-0.2459	-0.0949	0.1511	1049.6602	0.116638	-399.772519	-399.764311	-399.763367	-399.806669	27.948
O          0.36650        1.12770        1.23330
C          0.84660        1.00440        0.13840
C          1.10460        2.18110       -0.81260
O          1.36040        1.93950       -1.96790
C          1.04430        3.58020       -0.22130
N          2.34550        3.82120        0.39680
C          3.35930        4.43640       -0.45710
C          2.70220        5.21750        0.62830
H          1.10400        0.02330       -0.31380
H          0.79490        4.29360       -1.02220
H          0.27880        3.61470        0.55960
H          4.36990        4.06020       -0.33040
H          3.08450        4.67380       -1.48280
H          1.98710        5.98170        0.32920
H          3.22320        5.41920        1.55940
