20
gdb 10681	2.30279	1.86912	1.48633	0.6781	80.86	-0.2402	0.0549	0.2951	1004.9679	0.174743	-311.833819	-311.824636	-311.823692	-311.866902	35.005
C         -0.37910        1.39890        0.07010
C          0.08760       -0.05790       -0.04770
C          0.98960       -0.26320       -1.27160
C          0.77340       -0.53310        1.24060
C         -0.11070       -1.03110        2.37520
C          0.69950       -2.01480        1.58100
C          1.97910        0.16480        1.60600
C          2.98540        0.75660        1.89940
H          0.47510        2.06810        0.21510
H         -0.90550        1.71300       -0.83690
H         -1.05660        1.53180        0.91960
H         -0.80130       -0.69210       -0.16880
H          1.90230        0.33500       -1.18400
H          1.28530       -1.31200       -1.37610
H          0.47410        0.03770       -2.18930
H          0.20010       -0.81060        3.38930
H         -1.18250       -0.99400        2.21070
H          0.18390       -2.65330        0.87120
H          1.56390       -2.46670        2.05240
H          3.87340        1.27560        2.16250
