17
gdb 1898	3.71321	2.76573	2.16613	1.9158	64.46	-0.2295	0.0894	0.3189	701.7911	0.147485	-309.66019	-309.653234	-309.65229	-309.69058	26.793
C         -0.16310        1.62800       -0.05390
C          0.01510        0.12050        0.02460
C          1.18000       -0.64720       -0.65830
C          2.18060       -0.12200        0.39330
C          0.88490       -0.58890        1.11460
C          0.61830       -0.78410        2.57460
O          0.89550       -1.79220        0.23430
H          0.77010        2.18190        0.07700
H         -0.58420        1.91310       -1.02420
H         -0.86310        1.97060        0.71620
H         -0.93340       -0.40650       -0.11560
H          1.33960       -0.86650       -1.71450
H          3.04570       -0.76580        0.55800
H          2.44060        0.93840        0.40140
H          0.62710        0.17970        3.09380
H         -0.35990       -1.25050        2.72680
H          1.38250       -1.42530        3.02430
