18
gdb 15347	6.15152	0.91835	0.88702	2.0208	74.73	-0.2585	0.0515	0.31	1344.3132	0.151094	-347.753903	-347.744817	-347.743873	-347.78837	32.443
C          0.57890        1.39990        0.21300
C         -0.26200        0.16320       -0.12880
C          0.22380       -0.51010       -1.39090
O          1.45340       -1.24790       -1.31710
C          0.25890       -1.96120       -1.63370
C         -0.21980       -3.00550       -0.63590
C          0.43260       -4.29640       -0.83000
C          0.97190       -5.35440       -1.01220
H          1.62520        1.12050        0.36730
H          0.54440        2.13780       -0.59580
H          0.21530        1.88390        1.12390
H         -0.23740       -0.54050        0.70830
H         -1.31150        0.45180       -0.27300
H          0.15870        0.12390       -2.27960
H          0.20650       -2.29840       -2.67040
H         -0.03920       -2.65060        0.38320
H         -1.30650       -3.12470       -0.74470
H          1.45280       -6.28900       -1.16180
