22
gdb 12562	3.19786	1.6661	1.22116	1.2271	78.08	-0.2412	0.083	0.3243	1067.2697	0.202304	-350.217462	-350.209271	-350.208327	-350.249645	31.916
C          0.46280        1.66960       -0.02610
C          0.00300        0.20570       -0.00550
C          0.46270       -0.53150       -1.28070
C         -0.20930       -1.90060       -1.48120
C          0.44940       -3.06000       -0.71390
O          1.00030       -2.71960        0.54410
C          0.16660       -1.97020        1.41250
C          0.45340       -0.47120        1.30110
H          1.55720        1.73620       -0.04550
H          0.08240        2.19420       -0.90890
H          0.11520        2.20980        0.86100
H         -1.09810        0.20200       -0.01780
H          0.22200        0.10430       -2.14110
H          1.55500       -0.64220       -1.27410
H         -1.26750       -1.81570       -1.20410
H         -0.20380       -2.17260       -2.54360
H         -0.27530       -3.88480       -0.60640
H          1.29880       -3.44860       -1.28640
H         -0.89710       -2.18980        1.23400
H          0.39780       -2.30780        2.42990
H          1.53720       -0.34190        1.42270
H         -0.01950        0.04190        2.14940
