15
gdb 5628	3.27012	1.94777	1.23215	1.7571	63.68	-0.192	0.0364	0.2285	940.0161	0.119374	-399.801386	-399.793633	-399.792689	-399.833397	28.489
C          0.04310        1.34170        0.00500
O          0.01450       -0.07320       -0.03630
C         -1.22510       -0.62140       -0.01820
C         -2.46370       -0.05490        0.03270
O         -3.41190       -1.03280        0.04710
C         -2.75800       -2.23330        0.00290
C         -1.40950       -2.04720       -0.03830
N         -0.36290       -2.96990       -0.15550
H          1.09260        1.63900       -0.01110
H         -0.47260        1.77050       -0.86470
H         -0.43180        1.71880        0.92100
H         -2.81980        0.95930        0.06590
H         -3.38020       -3.11200        0.00510
H         -0.55020       -3.85070        0.30470
H          0.50940       -2.58410        0.18290
