14
gdb 12180	4.10444	1.40645	1.10739	3.3308	61.91	-0.2544	-0.0409	0.2135	1006.5062	0.10566	-415.845364	-415.837237	-415.836293	-415.878576	28.247
O          0.10110        0.95010        0.57130
C          0.04120       -0.31320        0.00260
C         -1.35790       -0.87280       -0.51690
N         -0.64060       -1.24070       -1.75230
C          0.47590       -0.46170       -1.45620
N          1.43620        0.07660       -2.07290
C         -1.94220       -2.03720        0.24100
O         -2.95170       -1.98480        0.89350
H          0.33210        1.57500       -0.12630
H          0.52410       -1.03390        0.67110
H         -2.08880       -0.06490       -0.61860
H         -1.06350       -1.33490       -2.66610
H          1.41520       -0.10920       -3.07670
H         -1.33460       -2.96840        0.16060
