17
gdb 2094	4.58527	2.35768	1.66159	1.2291	65.22	-0.2402	0.0281	0.2682	759.6367	0.150157	-309.736085	-309.729411	-309.728467	-309.766319	25.975
O         -0.07360        1.44570       -0.00490
C          0.01210        0.02640       -0.00840
C         -1.41110       -0.52080        0.04440
C         -1.40590       -2.05390        0.13980
C         -0.40960       -2.67800       -0.80270
C          0.54210       -1.98800       -1.43030
C          0.74160       -0.50410       -1.25010
H          0.82040        1.79760       -0.06430
H          0.55180       -0.32300        0.88870
H         -1.94150       -0.07570        0.89170
H         -1.93450       -0.20330       -0.86580
H         -1.18080       -2.37030        1.16940
H         -2.40990       -2.44450       -0.06810
H         -0.49000       -3.75070       -0.96340
H          1.22260       -2.49850       -2.10770
H          0.37200        0.04440       -2.12880
H          1.81480       -0.27590       -1.18250
