16
gdb 10556	2.99341	1.41149	1.07404	0.9878	67.	-0.2619	0.0223	0.2842	1096.4615	0.12751	-383.673051	-383.664249	-383.663305	-383.706768	31.427
O         -0.16420        1.46520       -0.07290
C         -0.07600        0.06160       -0.26540
C         -1.36010       -0.54910        0.28790
C         -1.39710       -2.05880        0.14400
C         -2.65720       -2.73940       -0.22190
O         -1.64130       -2.53690       -1.19690
C         -0.40190       -2.80060        0.88640
C          0.42940       -3.39040        1.52380
H          0.63200        1.86710       -0.43180
H          0.01820       -0.19630       -1.33090
H          0.79290       -0.36350        0.25900
H         -1.45780       -0.27910        1.34530
H         -2.21460       -0.12190       -0.24540
H         -2.81350       -3.77130        0.08650
H         -3.55860       -2.14020       -0.34540
H          1.16260       -3.92080        2.07980
