15
gdb 1551	4.02162	1.68703	1.26032	1.8302	59.54	-0.2598	0.0296	0.2894	936.8375	0.121879	-345.596027	-345.587465	-345.58652	-345.629143	29.347
C          0.65710        1.30160       -0.04220
O          0.75000       -0.09650       -0.18010
C         -0.16750       -0.62100       -1.10460
C          0.05460       -2.13880       -1.20690
O         -0.99440       -2.73360       -1.96470
C          1.37380       -2.46390       -1.74970
C          2.43040       -2.72890       -2.25790
H          0.86210        1.81890       -0.99260
H         -0.33930        1.61230        0.30980
H          1.40350        1.60680        0.69480
H         -1.20800       -0.45260       -0.78440
H         -0.04110       -0.16120       -2.09980
H         -0.03390       -2.55330       -0.19610
H         -0.77410       -2.62880       -2.89660
H          3.37270       -2.96940       -2.68490
