11
gdb 23640	3.98339	1.98153	1.32327	5.0086	57.01	-0.2466	-0.067	0.1795	812.1297	0.072653	-438.714111	-438.70806	-438.707116	-438.744677	22.446
F          0.01220        0.06890        0.00240
C         -0.03610        1.38980        0.01160
N         -1.18620        1.94100        0.02980
C         -1.26880        3.31520        0.03880
N         -2.35710        3.95040        0.05620
O         -0.03880        4.05410        0.02630
C          1.12950        3.41210        0.00700
C          1.22640        2.06960       -0.00190
H         -2.18890        4.95490        0.05940
H          1.97320        4.09340       -0.00070
H          2.17030        1.54730       -0.01780
