13
gdb 15493	3.27649	2.01363	1.35352	3.3945	59.89	-0.2297	-0.0316	0.198	851.9546	0.095274	-398.647659	-398.640596	-398.639652	-398.679467	25.332
O         -0.59120        0.67390       -0.66570
C          0.12260        0.98590        0.24820
C          1.31620        1.92960        0.12610
C          1.38540        2.78600       -1.10640
C          1.43600        4.06480       -0.72270
N          1.41440        4.18350        0.67760
C          1.32370        2.95060        1.28970
O          1.24970        2.72590        2.47490
H         -0.02140        0.59660        1.27800
H          2.20430        1.29260        0.26320
H          1.36540        2.41830       -2.11910
H          1.48920        4.95980       -1.32540
H          1.40680        5.04640        1.19550
