11
gdb 206	9.23894	3.65185	2.62644	3.0074	47.82	-0.1849	0.0391	0.2241	471.183	0.087869	-281.504579	-281.499371	-281.498427	-281.532762	19.414
N          0.01030        1.40420        0.16850
C         -0.04210        0.01130        0.05530
C         -1.13730       -0.82030        0.02960
N         -0.60550       -2.10120       -0.01980
C          0.74330       -1.98060       -0.01790
N          1.12030       -0.71930        0.02380
H          0.92060        1.74560       -0.11260
H         -0.71570        1.87890       -0.35110
H         -2.19800       -0.63960        0.05030
H         -1.13060       -2.95790       -0.05270
H          1.40310       -2.83440       -0.05040
