17
gdb 13093	3.86576	1.3089	1.12904	2.6861	66.05	-0.2538	0.0203	0.2742	1072.5018	0.141728	-401.006389	-400.997976	-400.997031	-401.040756	29.359
C         -0.34690        1.41060        0.15100
C          0.08290       -0.03990        0.05930
O          1.14500       -0.24760       -0.90600
C          2.05300       -0.73270        0.09840
C          0.97270       -0.63290        1.19570
N          1.27230        0.17130        2.35070
C          0.93890       -0.19470        3.62240
O          0.36100       -1.21430        3.92800
H          0.49680        2.06900        0.38150
H         -0.76790        1.73140       -0.80650
H         -1.11160        1.53870        0.92400
H         -0.78080       -0.67300       -0.18140
H          2.42360       -1.74020       -0.12260
H          2.91390       -0.06370        0.24050
H          0.61340       -1.58950        1.57160
H          1.74690        1.05150        2.22430
H          1.26780        0.56060        4.36310
