15
gdb 2324	7.34964	1.32173	1.23098	3.1647	58.59	-0.251	-0.0259	0.2251	957.0895	0.122543	-345.644179	-345.636418	-345.635474	-345.67703	26.425
C          0.15230        1.52410       -0.24900
C         -0.08940        0.09000        0.14320
O          1.02530       -0.80910        0.10170
C          0.41030       -0.55420        1.37130
C          1.26280        0.12530        2.42270
C          2.35720       -0.80070        2.92360
O          2.57020       -1.03890        4.08400
H          1.07030        1.92230        0.18760
H          0.23910        1.60290       -1.33750
H         -0.68810        2.15170        0.06620
H         -1.00100       -0.33930       -0.27830
H         -0.16720       -1.39940        1.75180
H          1.75340        1.00700        1.99410
H          0.65510        0.44260        3.27550
H          2.97030       -1.25620        2.11530
