17
gdb 14760	2.34039	1.94638	1.18786	3.1599	64.96	-0.2642	0.0189	0.2831	1021.389	0.140473	-400.982207	-400.973123	-400.972179	-401.01656	30.885
C          0.53240        0.40090        0.84110
O          0.04910       -0.75820        0.19370
C         -1.34560       -0.93090        0.32530
C         -1.70810       -2.31590       -0.18720
O         -1.40670       -3.38230        0.70400
C         -0.04050       -3.63530        0.93630
C          0.47960       -2.92020        2.11880
N          0.87280       -2.38750        3.06580
H          1.60450        0.45920        0.64130
H          0.04590        1.30890        0.45320
H          0.37620        0.34650        1.92730
H         -1.66120       -0.82980        1.37530
H         -1.88800       -0.17160       -0.26460
H         -2.78960       -2.37720       -0.33770
H         -1.21190       -2.47580       -1.15640
H          0.06090       -4.71030        1.12370
H          0.58110       -3.37350        0.07150
