18
gdb 6856	3.43347	1.83057	1.58775	1.8576	69.29	-0.2422	0.0115	0.2537	887.0769	0.153879	-384.946266	-384.938535	-384.937591	-384.977752	30.212
C         -0.05800        1.58660       -0.01380
C          0.01970        0.06410        0.02980
O         -1.33450       -0.40190        0.07840
C          0.70740       -0.49670       -1.22240
O          0.87930       -1.90110       -1.09300
C          1.83250       -2.22100       -0.09500
C          1.60480       -1.46760        1.18670
C          0.77320       -0.42990        1.24960
H          0.94120        2.03140       -0.02450
H         -0.60170        1.91290       -0.90550
H         -0.59520        1.95620        0.86440
H         -1.28390       -1.36350        0.01210
H          0.06940       -0.33990       -2.09630
H          1.67690       -0.00120       -1.39240
H          1.75200       -3.30120        0.07250
H          2.85620       -2.03160       -0.46940
H          2.14940       -1.81360        2.06180
H          0.58350        0.08380        2.18860
