17
gdb 20253	3.53443	3.02122	2.39956	1.811	69.45	-0.2185	0.0819	0.3004	666.1296	0.146228	-326.670795	-326.665586	-326.664642	-326.699648	22.865
C         -0.02510        1.55510        0.01590
C          1.53000        1.50520        0.01100
C          2.01960        1.39020        1.46050
C          1.66280       -0.03700        1.82560
C          1.78910       -0.92540        0.65920
C          1.45510        0.00430       -0.51910
C         -0.00220        0.02290       -0.00660
N          0.42540       -0.67940        1.27830
H         -0.51000        2.06120        0.85640
H         -0.43390        1.94240       -0.92280
H          2.06200        2.24580       -0.58670
H          3.10640        1.51560        1.54600
H          1.54780        2.13850        2.10650
H          1.88820       -0.40860        2.82060
H          2.24970       -1.90680        0.63470
H          1.74860       -0.21840       -1.54200
H         -0.81610       -0.54320       -0.46170
