10
gdb 8614	2.17113	2.13927	1.51647	4.7739	57.9	-0.3255	-0.0582	0.2672	849.8051	0.057244	-376.271284	-376.26319	-376.262246	-376.303696	27.928
O         -0.07220        1.42240       -0.00240
C          0.00660        0.01110        0.01580
C          0.70990       -0.50120        1.20060
C          1.30940       -0.87740        2.16890
C         -1.39180       -0.48540        0.00830
N         -2.47210       -0.88900        0.01060
C          0.69470       -0.48950       -1.21000
N          1.26000       -0.83540       -2.15510
H          0.81650        1.76810        0.15350
H          1.83420       -1.22020        3.02820
