20
gdb 11302	4.72016	1.15732	0.99677	3.0271	76.11	-0.245	-0.0158	0.2293	1199.9894	0.177335	-349.038455	-349.030048	-349.029104	-349.072217	30.928
C         -0.13900        1.53380       -0.02640
C          0.04590        0.01740       -0.01340
C          0.85350       -0.54780       -1.19430
C          1.24750       -1.95190       -0.71920
C          1.63160       -1.75150        0.77220
C          0.79620       -0.51540        1.23620
C          1.32910       -2.98000        1.59350
O          2.13690       -3.65420        2.17780
H          0.83050        2.04530       -0.00610
H         -0.67150        1.86240       -0.92510
H         -0.71270        1.87460        0.84210
H         -0.94710       -0.45200       -0.03960
H          0.29000       -0.55500       -2.13250
H          1.75320        0.06080       -1.35660
H          0.37980       -2.62130       -0.79400
H          2.05740       -2.40770       -1.29390
H          2.70230       -1.55220        0.86280
H          1.46790        0.24830        1.64100
H          0.09820       -0.77140        2.04120
H          0.24070       -3.23750        1.62010
