18
gdb 16662	2.90115	2.28278	1.75879	2.6044	66.32	-0.2562	0.0822	0.3384	826.5047	0.154908	-384.939528	-384.93232	-384.931375	-384.970536	28.599
C          0.00800        1.57570        0.00200
C          0.07950        0.04920        0.01280
C          0.81880       -0.57670       -1.15770
O          2.25560       -0.57520       -0.99770
C          1.51960       -1.78270       -0.70320
C          1.26060       -1.97090        0.77800
C          0.81170       -0.56250        1.24980
O          1.91410        0.21880        1.67400
H          1.00760        2.01530        0.01500
H         -0.51680        1.93460       -0.88940
H         -0.52700        1.94730        0.88110
H         -0.94250       -0.35750       -0.00940
H          0.47660       -0.43920       -2.18070
H          1.74040       -2.62180       -1.35730
H          0.46570       -2.71500        0.91290
H          2.13720       -2.30580        1.33940
H          0.14260       -0.61800        2.11230
H          2.51870        0.24250        0.91960
