18
gdb 18346	3.22676	2.21104	1.50646	1.6307	72.9	-0.2348	0.0203	0.2551	878.8411	0.155179	-347.804386	-347.797216	-347.796272	-347.83575	27.401
C          0.24510        1.39920        0.08870
C         -0.00030       -0.07290       -0.00280
C         -0.01460       -0.84300       -1.09520
C         -0.27410       -2.30580       -0.81250
C         -0.28510       -2.36530        0.72600
C          1.07300       -2.49310        1.45300
O          0.97870       -1.15800        1.99760
C         -0.23460       -0.90480        1.23540
H          1.10310        1.60230        0.74060
H          0.44400        1.84210       -0.89090
H         -0.61490        1.91850        0.53080
H          0.14440       -0.47310       -2.10400
H         -1.22790       -2.63810       -1.24350
H          0.49740       -2.95590       -1.24670
H         -1.06940       -3.00050        1.13760
H          1.12900       -3.24690        2.24700
H          1.93990       -2.60950        0.78850
H         -1.02540       -0.51790        1.89010
