16
gdb 18132	5.4094	1.31625	1.2951	4.4136	69.12	-0.2494	0.0233	0.2727	978.6846	0.131357	-342.749851	-342.742533	-342.741589	-342.781384	27.345
C         -0.07540        1.56630       -0.03450
C          0.06940        0.06270       -0.06690
C          0.62300       -0.74630       -1.17240
C          1.77210       -0.02250       -1.89580
C          2.44470        0.06830       -0.48820
N          1.32680       -0.68170        0.17610
C          2.49750       -0.83440       -2.85800
N          3.07580       -1.47940       -3.62350
H          0.65680        2.09410       -0.64930
H         -1.06990        1.84580       -0.39650
H          0.02090        1.93560        0.99180
H         -0.73660       -0.44650        0.45900
H          0.16150       -1.65600       -1.54150
H          1.49920        0.92360       -2.37350
H          3.36240       -0.51590       -0.42350
H          2.62640        1.07350       -0.09910
