18
gdb 10534	3.142	1.26451	1.02386	1.2231	63.48	-0.2565	0.0747	0.3312	1163.4329	0.152099	-422.041135	-422.032006	-422.031062	-422.075757	32.363
O         -1.81560        1.77030        0.29980
C         -1.74790        0.50390       -0.33770
C         -1.46940       -0.62140        0.66230
C         -1.31160       -2.01110        0.07280
C         -0.75180       -3.05180        1.02650
O          0.57660       -2.73510        1.40650
C         -2.05860       -2.47130       -1.10610
O         -0.68280       -2.09070       -1.22670
H         -0.94370        1.96440        0.65860
H         -2.72620        0.36970       -0.81060
H         -0.99360        0.48660       -1.13560
H         -0.54160       -0.39520        1.20440
H         -2.26850       -0.64270        1.41360
H         -1.33860       -3.08060        1.95090
H         -0.80760       -4.04400        0.55550
H          1.09150       -2.70300        0.59170
H         -2.26040       -3.53420       -1.23510
H         -2.76800       -1.81020       -1.59930
