16
gdb 13972	5.94854	1.06995	0.9915	1.8452	76.01	-0.2225	0.0382	0.2608	1201.5868	0.129238	-346.535539	-346.527468	-346.526524	-346.569963	28.641
C         -0.00880        1.49920       -0.00980
C         -0.00890        0.04410       -0.01230
C         -0.01300       -1.16200       -0.01550
C          0.00810       -2.58170       -0.00290
C         -0.38060       -3.46270       -1.18960
C         -1.09830       -3.63610        0.10360
O         -0.34740       -4.44670        1.00100
C          0.72310       -3.46610        1.02630
H          0.80430        1.89090        0.61160
H          0.12580        1.90180       -1.02010
H         -0.94840        1.90100        0.38610
H         -0.92290       -2.93200       -1.96490
H          0.29480       -4.24130       -1.53470
H         -2.16700       -3.54870        0.26120
H          1.69130       -3.89250        0.73960
H          0.79220       -2.99740        2.01300
