16
gdb 12988	2.76921	2.6827	1.61424	3.5381	66.03	-0.2454	0.0222	0.2676	814.1372	0.132085	-379.918059	-379.910999	-379.910055	-379.949073	27.008
C         -0.10720        1.50880       -0.02190
C          0.08130        0.01930        0.00230
N         -0.73490       -0.85640        0.89460
C          0.72440       -0.78180        1.07350
C          1.41580       -1.94600        0.39830
O          1.02720       -1.87950       -0.98740
C          0.38470       -0.70690       -1.27060
N          0.10830       -0.28800       -2.42900
H          0.76900        2.00670       -0.44670
H         -0.96660        1.76870       -0.64620
H         -0.27230        1.89820        0.98780
H         -1.18520       -0.25760        1.58530
H          1.15150       -0.33340        1.96360
H          2.50700       -1.86340        0.46490
H          1.09870       -2.91620        0.79090
H          0.44540       -0.94060       -3.13890
