18
gdb 19734	3.8348	2.42461	2.22444	1.4727	69.54	-0.233	0.0964	0.3295	717.9092	0.15845	-347.79756	-347.792094	-347.79115	-347.826733	23.754
C         -0.03180        1.57340        0.04130
C          1.51470        1.42550        0.00470
C          1.78300        0.78630        1.38070
C          0.83900       -0.45030        1.23070
C          1.67560       -1.56210        0.58960
O          2.10260       -0.97960       -0.65550
C          1.26230        0.13770       -0.86830
C         -0.00680        0.02940        0.01000
H         -0.47090        2.07410        0.90810
H         -0.44670        1.99310       -0.87880
H          2.16620        2.23720       -0.31900
H          2.82550        0.49120        1.52700
H          1.49470        1.45070        2.20040
H          0.29320       -0.74780        2.12650
H          2.55910       -1.83300        1.17790
H          1.09070       -2.47420        0.39630
H          1.13460        0.31700       -1.93610
H         -0.86720       -0.57840       -0.27030
