12
gdb 1164	2.95291	2.68369	1.95679	3.7367	51.27	-0.2775	-0.0577	0.2198	693.407	0.086816	-360.524422	-360.51665	-360.515706	-360.556462	26.498
C          0.12590        1.55500        0.23510
C          0.02850        0.03600        0.04010
O          0.79070       -0.55810        1.08090
C         -1.44900       -0.38170        0.20990
O         -2.18460       -0.72080       -0.67130
C          0.53710       -0.36220       -1.28540
N          0.96570       -0.70040       -2.30290
H          1.17600        1.85350        0.21110
H         -0.42130        2.08140       -0.54960
H         -0.29150        1.81810        1.21090
H          0.85600       -1.50690        0.91860
H         -1.75600       -0.33190        1.27790
