17
gdb 15791	3.40963	1.40959	1.15424	2.4143	65.62	-0.2525	0.0287	0.2812	1054.3497	0.141378	-401.004434	-400.995966	-400.995021	-401.038322	29.973
C         -0.01490        1.62470       -0.18610
C         -0.00040        0.09970       -0.00130
N         -1.34550       -0.44810        0.06480
C         -1.99520       -0.68730        1.23300
O         -1.53480       -0.49760        2.33970
C          0.76940       -0.57890       -1.12350
C          0.58230       -1.98300       -1.49550
O          0.00890       -0.93020       -2.28680
H          1.00510        2.02240       -0.20050
H         -0.50230        1.89820       -1.12750
H         -0.55540        2.09590        0.63810
H          0.47850       -0.13690        0.95450
H         -1.81090       -0.61380       -0.81550
H         -3.01370       -1.08920        1.06210
H          1.73130       -0.11650       -1.34720
H          1.39630       -2.52640       -1.97130
H         -0.13380       -2.59050       -0.94700
