16
gdb 14432	4.0939	2.22436	1.76845	1.7355	71.35	-0.2085	-0.0326	0.1759	762.0142	0.130822	-346.495969	-346.489638	-346.488694	-346.525808	26.247
O         -0.08730        1.32060       -0.11140
C          0.01290       -0.05980       -0.06220
C          0.57510       -0.90780       -1.27400
C         -0.22590       -2.00690       -0.57100
C          0.43190       -2.76270        0.33110
C          0.24520       -2.18110        1.73040
C         -0.28970       -0.79290        1.33240
C         -1.14250       -0.97900        0.12380
H          0.75760        1.69320        0.16360
H          0.15080       -0.48690       -2.19300
H          1.65180       -1.06840       -1.38680
H          1.33850       -3.30780        0.08280
H         -0.45510       -2.69290        2.40730
H          1.21920       -2.16740        2.23590
H         -0.58550       -0.07180        2.09190
H         -2.20350       -0.82150       -0.01960
