10
gdb 187	9.01341	3.89637	2.72039	3.6997	43.39	-0.1951	0.0406	0.2357	444.2644	0.075511	-301.405558	-301.400597	-301.399653	-301.433583	18.314
O          0.00270       -0.05050        0.00300
C         -0.01370        1.16430        0.00990
N         -1.11170        2.01800        0.02870
C         -0.71750        3.35370        0.03100
C          0.63030        3.37210        0.01330
N          1.06060        2.04770        0.00030
H         -2.05230        1.66720        0.03910
H         -1.42660        4.16280        0.04460
H          1.31720        4.20020        0.00860
H          2.01040        1.72270       -0.01360
