17
gdb 18890	4.40431	2.35316	1.98713	1.6807	69.69	-0.2196	0.0767	0.2964	735.7194	0.144053	-326.6756	-326.669532	-326.668588	-326.705261	25.325
C         -0.06080        1.45650        0.04780
C          0.01660       -0.04240       -0.04930
C         -0.35220       -0.78290       -1.32100
C         -0.22740       -2.20020       -0.80840
C          0.86380       -2.29190        0.25300
C         -0.58350       -2.21970        0.65500
N         -0.45130       -0.80040        1.16260
C          0.99140       -0.84230        0.74220
H          0.61630        1.92990       -0.67140
H         -1.07700        1.80880       -0.15870
H          0.21230        1.79290        1.05120
H         -1.36930       -0.54510       -1.65300
H          0.34240       -0.55620       -2.13750
H         -0.43830       -3.06750       -1.42120
H          1.58810       -3.08940        0.33670
H         -1.24480       -2.91650        1.15220
H          1.77680       -0.43360        1.36840
