17
gdb 17759	2.94834	2.67863	1.81855	2.2298	71.15	-0.2031	0.0696	0.2727	793.7099	0.141222	-326.611821	-326.604666	-326.603721	-326.642674	27.853
C         -0.07410        1.50110        0.04620
C          0.00270        0.01230       -0.01410
C          0.90030       -0.97280       -0.81450
C         -0.17940       -1.99280       -0.82390
N          0.84130       -2.00180        0.28330
C         -0.06510       -1.04960        1.06130
C         -1.11920       -1.04770       -0.02380
C         -2.60180       -0.88700        0.02430
H          0.87470        1.93870        0.37900
H         -0.31740        1.93360       -0.93160
H         -0.84880        1.82170        0.75130
H          1.77680       -0.84310       -1.43990
H         -0.35270       -2.85510       -1.45830
H         -0.12420       -0.99700        2.14250
H         -2.88440       -0.10150        0.73370
H         -3.01080       -0.61110       -0.95490
H         -3.09550       -1.81220        0.34460
