17
gdb 11117	5.51905	1.06798	1.02755	3.6627	69.56	-0.2641	0.0308	0.2949	1165.8178	0.141907	-363.857685	-363.849462	-363.848518	-363.89095	29.238
C         -0.60070        1.50480       -0.07190
O         -0.22960        0.24520        0.44900
C         -1.07620       -0.79290        0.05430
C         -0.90230       -1.40300       -1.36890
C         -1.00050       -2.82560       -0.71990
C         -0.71270       -2.15830        0.66790
C         -2.32110       -3.42740       -0.82260
N         -3.37460       -3.89810       -0.90260
H          0.10470        2.23880        0.32360
H         -0.55430        1.52610       -1.17080
H         -1.61930        1.78480        0.23700
H         -2.12900       -0.53090        0.24020
H         -1.63130       -1.15670       -2.14140
H          0.11010       -1.22680       -1.74040
H         -0.25790       -3.55100       -1.05780
H          0.35520       -2.19660        0.89290
H         -1.28500       -2.50850        1.52680
