15
gdb 20559	4.60296	1.4864	1.48048	5.1471	62.02	-0.3136	-0.04	0.2737	909.4087	0.11887	-392.121692	-392.114167	-392.113222	-392.154362	26.341
C         -0.00540        1.55160        0.01660
C         -0.03430        0.02190       -0.01770
C         -1.45070       -0.55660        0.01860
N          0.67470       -0.46550       -1.21420
N          0.30480       -0.20810       -2.45640
N          1.18010       -0.81260       -3.20500
N          2.07510       -1.43300       -2.41580
N          1.76240       -1.21820       -1.17250
H          1.02130        1.92580       -0.00610
H         -0.54860        1.96800       -0.83560
H         -0.48060        1.90170        0.93680
H          0.55530       -0.38160        0.80910
H         -2.03470       -0.20270       -0.83490
H         -1.42950       -1.64920       -0.00080
H         -1.94870       -0.23670        0.93770
