16
gdb 8214	2.92011	2.35222	1.70312	2.461	59.97	-0.2444	0.0531	0.2975	795.2071	0.130166	-420.852637	-420.845284	-420.84434	-420.883605	28.746
O         -0.22280        1.32610       -0.04680
C         -0.02830       -0.05390        0.01150
C         -0.38120       -0.83760        1.25780
C         -1.26590       -0.90860        0.02800
O         -2.52690       -0.33320        0.03180
C         -0.99330       -2.03680       -0.94740
O          0.42700       -2.05080       -1.10840
C          0.91740       -0.71920       -0.97310
H          0.31760        1.74910        0.62810
H          0.23430       -1.68880        1.53220
H         -0.79450       -0.26510        2.08140
H         -2.39620        0.61950       -0.07540
H         -1.28730       -3.03170       -0.60050
H         -1.51460       -1.82010       -1.89270
H          0.88420       -0.16450       -1.92450
H          1.95930       -0.79250       -0.64360
