14
gdb 12586	3.27256	2.11154	1.35398	1.4711	64.83	-0.2486	-0.0944	0.1542	860.1542	0.106972	-382.596084	-382.588853	-382.587909	-382.627895	26.177
C         -0.11250        1.57900        0.00830
C          0.05060        0.05630        0.00500
C          0.86650       -0.48510       -1.17210
O          0.70200       -0.22740       -2.34010
C          1.92410       -1.38020       -0.61490
C          1.88180       -1.38770        0.72590
C          0.79070       -0.49850        1.22510
O          0.55270       -0.25380        2.38320
H          0.86060        2.07870        0.04180
H         -0.62970        1.90160       -0.89810
H         -0.68590        1.89170        0.88380
H         -0.94200       -0.41340       -0.02900
H          2.61460       -1.91540       -1.25580
H          2.53050       -1.93030        1.40300
