18
gdb 14478	3.87253	2.19651	2.1694	1.3054	69.31	-0.2284	0.0858	0.3142	750.3562	0.156161	-347.813507	-347.807288	-347.806344	-347.843285	26.307
C         -0.07770        1.45950        0.02220
C          0.05950       -0.04130        0.01560
C          0.75160       -0.72730       -1.19200
C          0.44520       -2.15440       -0.76100
C          0.44620       -2.16120        0.77290
C          0.75290       -0.73790        1.21620
C         -0.84950       -2.02920        0.00740
O         -1.24200       -0.67190        0.01350
H          0.90840        1.93370        0.02050
H         -0.62590        1.80060       -0.86080
H         -0.61960        1.79370        0.91170
H          0.27520       -0.45540       -2.13870
H          1.82040       -0.50030       -1.24400
H          0.69800       -3.02650       -1.34850
H          0.69980       -3.03850        1.35230
H          1.82180       -0.51140        1.26910
H          0.27750       -0.47440        2.16580
H         -1.66370       -2.73970        0.00470
