12
gdb 23765	3.32077	2.36446	1.38109	3.8306	62.24	-0.2178	-0.0487	0.169	799.7288	0.084458	-422.64868	-422.642516	-422.641571	-422.679067	23.483
F          0.01290        0.02550        0.00360
C         -0.04190        1.34890        0.01100
C         -1.21310        2.01110        0.03000
C         -1.19810        3.45060        0.03700
C         -0.01270        4.07830        0.02430
O          1.17110        3.41800        0.00510
C          1.24850        2.02850       -0.00290
N          2.36030        1.42230       -0.02080
H         -2.14430        1.45750        0.03970
H         -2.11600        4.02170        0.05220
H          0.13410        5.15030        0.02760
H          3.13440        2.08650       -0.02790
