13
gdb 7233	4.70725	1.32956	1.08803	1.3441	57.29	-0.257	-0.0817	0.1753	1040.9589	0.091968	-435.76955	-435.760889	-435.759944	-435.804248	28.259
C          0.75070        1.11420        0.19080
C          0.02800       -0.20160        0.05840
O         -0.66590       -0.69800        0.90610
C          0.25400       -0.91050       -1.30070
O          0.94250       -0.46230       -2.16900
O         -0.47670       -2.05990       -1.35860
C         -0.26060       -3.01330       -2.32780
N          0.88640       -3.33210       -2.72170
H          0.44510        1.79440       -0.61060
H          0.53660        1.55130        1.16590
H          1.82800        0.96270        0.06760
H         -1.22270       -3.44470       -2.61410
H          0.82900       -4.08360       -3.40760
