19
gdb 14831	2.83531	1.6328	1.10487	1.9476	74.67	-0.2469	0.032	0.2788	1120.5859	0.164763	-365.06483	-365.055845	-365.0549	-365.098933	31.432
C         -0.04240        1.58710        0.10690
C         -0.00460        0.06510       -0.06300
C         -1.39590       -0.56520       -0.00080
C         -1.50620       -2.10660        0.04270
O         -2.15920       -2.04020        1.34570
C         -2.05550       -0.65550        1.36380
N         -2.38810        0.17120        2.24160
C         -2.99200       -0.30670        3.47830
H          0.96770        2.00740        0.09560
H         -0.61010        2.05860       -0.70310
H         -0.52250        1.85600        1.05140
H          0.45700       -0.19680       -1.02370
H          0.62480       -0.38160        0.71690
H         -2.05420       -0.10970       -0.74770
H         -2.15690       -2.57660       -0.69890
H         -0.55700       -2.64650        0.10990
H         -4.00350        0.10550        3.56690
H         -3.05100       -1.39860        3.55570
H         -2.41660        0.07610        4.32820
