12
gdb 939	6.2471	2.77153	1.94282	0.7915	56.17	-0.2666	-0.0481	0.2184	626.0342	0.092318	-319.615129	-319.609177	-319.608233	-319.646346	20.349
C         -0.02500        1.48830        0.01030
C         -0.01230       -0.01130        0.00220
N         -0.00600       -0.63200       -1.18590
C          0.02470       -1.96090       -1.12420
N          0.04840       -2.69800       -0.01290
C          0.03750       -1.97320        1.10650
N          0.00770       -0.64500        1.18320
H          1.00670        1.86060        0.00170
H         -0.52330        1.86960       -0.88220
H         -0.50530        1.86000        0.91660
H          0.03180       -2.49730       -2.07120
H          0.05550       -2.51980        2.04750
