10
gdb 67	8.55908	4.01671	2.97882	3.269	39.28	-0.3051	0.0115	0.3166	424.3395	0.078602	-247.214861	-247.209162	-247.208218	-247.243338	19.252
C         -0.00990        1.54950        0.00730
C          0.00740        0.01720        0.05030
O          0.72090       -0.49630        1.15860
C         -1.37000       -0.52360        0.00890
N         -2.45080       -0.93230        0.00720
H          1.01890        1.91630        0.02720
H         -0.50260        1.90970       -0.90000
H         -0.54800        1.95380        0.87050
H          0.53600       -0.36490       -0.82970
H          0.27700       -0.20640        1.96420
