17
gdb 15564	3.26551	1.77147	1.20638	4.4381	76.67	-0.2587	-0.039	0.2197	991.1301	0.143462	-326.769062	-326.761371	-326.760427	-326.801123	28.536
C         -0.03540        1.58910       -0.01950
C          0.04400        0.06150        0.03130
C          0.74690       -0.58170       -1.19390
C          1.51280       -1.81390       -0.65350
C          1.65900       -1.50850        0.81260
C          0.86660       -0.49660        1.19050
C          0.73460       -0.00750        2.51870
N          0.59940        0.42100        3.58700
H          0.96380        2.03000       -0.10250
H         -0.62220        1.91440       -0.88430
H         -0.50860        1.99300        0.88050
H         -0.97910       -0.33070        0.12550
H          0.04390       -0.83340       -1.99130
H          1.46290        0.13780       -1.60600
H          0.94310       -2.74500       -0.78510
H          2.47550       -1.97320       -1.15090
H          2.29810       -2.07280        1.48170
