14
gdb 2385	4.80871	2.14696	1.79744	4.414	54.82	-0.2359	0.0182	0.2541	717.4239	0.113348	-361.73529	-361.728149	-361.727204	-361.766418	26.216
N          0.02150        1.23340        0.27880
C          0.00700       -0.04760       -0.17510
O          1.03530       -0.60120       -0.56360
C         -1.30550       -0.73990       -0.15130
C         -1.59570       -1.72020       -1.29370
C         -1.26080       -2.26620        0.05090
O         -0.07400       -2.91630        0.31530
H          0.90100        1.72260        0.30100
H         -0.80990        1.70750        0.58270
H         -2.14370       -0.19700        0.27290
H         -2.61680       -1.76890       -1.65530
H         -0.82430       -1.78520       -2.05360
H         -2.07110       -2.67730        0.64530
H          0.63520       -2.35910       -0.05680
