15
gdb 12152	3.55743	1.51419	1.19296	3.222	68.63	-0.2488	0.0222	0.271	1000.5986	0.117296	-362.65229	-362.644086	-362.643142	-362.685156	29.653
C         -0.07310        1.57630       -0.00260
C         -0.00340        0.05760        0.02050
C          0.73220       -0.66900       -1.16960
N          1.67160       -1.18970       -0.16500
C          1.09070       -0.57490        0.91830
O          1.36540       -0.54590        2.08680
C         -0.02170       -1.66460       -1.91390
C         -0.64390       -2.48240       -2.53770
H          0.90290        2.01610       -0.23250
H         -0.79330        1.93020       -0.74650
H         -0.38400        1.94880        0.97780
H         -0.98230       -0.38730        0.21510
H          1.20550        0.03890       -1.86080
H          2.43950       -1.84000       -0.24700
H         -1.19500       -3.20650       -3.08550
