18
gdb 13125	4.05429	1.16645	0.95815	1.9338	68.72	-0.2397	-0.0201	0.2197	1205.7537	0.152477	-384.944613	-384.935908	-384.934964	-384.978578	30.918
O          0.22380        1.35560        0.27850
C          0.12740       -0.03120       -0.01240
C         -1.33300       -0.43640        0.16170
C         -1.56470       -1.92420       -0.08300
C         -3.01780       -2.50210       -0.06830
C         -2.74110       -3.27500       -1.39330
C         -1.44840       -2.45420       -1.52580
O         -0.70130       -2.21730       -2.43230
H          1.11470        1.64490        0.06210
H          0.44960       -0.25650       -1.03820
H          0.75870       -0.62530        0.67040
H         -1.65510       -0.17250        1.17620
H         -1.94540        0.15640       -0.52830
H         -0.90880       -2.52250        0.56470
H         -3.28440       -3.10790        0.79830
H         -3.76800       -1.71790       -0.19590
H         -2.52840       -4.33860       -1.24260
H         -3.45810       -3.17870       -2.21220
