17
gdb 19822	3.75564	2.15322	1.86417	0.5521	66.77	-0.2288	0.0563	0.2851	781.4365	0.143019	-363.777646	-363.771003	-363.770059	-363.808119	26.429
C         -0.03690        1.57110       -0.14060
C          0.12240        0.06580       -0.06640
O          1.17760       -0.50560       -0.90930
C          1.56960       -1.41820        0.14760
C          2.78720       -0.98650        0.98040
C          2.87640        0.47490        1.05520
N          1.89030       -0.19420        1.93950
C          0.68310       -0.68860        1.15320
H         -0.16690        1.87710       -1.18360
H         -0.93730        1.86480        0.40950
H          0.80710        2.11800        0.28060
H         -0.83340       -0.40100       -0.35230
H          1.48390       -2.46910       -0.13450
H          3.55330       -1.66020        1.35100
H          3.69440        0.89450        1.63310
H          2.57040        1.05890        0.19780
H         -0.01620       -1.17270        1.83310
