10
gdb 23674	4.22771	1.81684	1.27074	0.9724	50.29	-0.2919	-0.0473	0.2447	806.7834	0.061327	-462.771586	-462.766039	-462.765095	-462.801548	20.489
F          0.01190        0.05770        0.00300
C         -0.02380        1.37680        0.01070
C         -1.25600        2.01470        0.03120
C         -1.16790        3.39950        0.03770
F         -2.27990        4.10970        0.05690
N         -0.03550        4.07590        0.02590
C          1.06920        3.33010        0.00660
N          1.13910        1.99900       -0.00180
H         -2.19640        1.48260        0.04120
H          2.01460        3.86500       -0.00350
