18
gdb 1615	3.57748	2.07344	1.40126	3.9675	67.88	-0.3121	0.0376	0.3497	892.0654	0.15875	-289.87247	-289.863888	-289.862944	-289.90505	30.839
C          0.02740        1.55250        0.02200
C          0.02030        0.01790        0.02610
C          0.77090       -0.51990        1.25180
C         -1.43120       -0.54150       -0.03610
C         -2.24280       -0.05830       -1.25590
C         -1.41600       -2.00980       -0.02130
N         -1.40470       -3.16590       -0.02850
H          1.05280        1.92290        0.11410
H         -0.39180        1.97160       -0.89610
H         -0.54380        1.95080        0.86940
H          0.53720       -0.33360       -0.87690
H          0.29240       -0.18600        2.18050
H          0.80030       -1.61260        1.26210
H          1.80160       -0.15300        1.26090
H         -1.95220       -0.22250        0.87780
H         -1.71950       -0.29420       -2.18740
H         -3.22100       -0.54430       -1.28530
H         -2.40100        1.02070       -1.20920
