15
gdb 1742	5.20377	1.7859	1.57195	4.0642	58.1	-0.2713	0.0056	0.2769	809.4866	0.123211	-345.665479	-345.658133	-345.657189	-345.696809	26.494
C          0.06550        1.54720       -0.31500
C         -0.00470        0.07080       -0.01030
C          1.20380       -0.80280       -0.13590
C          0.61850       -0.51400        1.23180
O         -1.20190       -0.53920       -0.48730
C         -2.30190       -0.41740        0.28480
O         -3.36890       -0.83970       -0.04680
H          1.03050        1.95700       -0.00450
H         -0.05350        1.71980       -1.38920
H         -0.72090        2.10190        0.20850
H          1.04760       -1.79450       -0.54350
H          2.14230       -0.33600       -0.41260
H          1.14980        0.15660        1.89830
H          0.09720       -1.32430        1.72830
H         -2.10010        0.09660        1.24270
