13
gdb 21507	5.13792	1.76957	1.31624	1.7786	61.35	-0.2571	-0.0208	0.2363	854.7929	0.09793	-394.845381	-394.838574	-394.83763	-394.876643	24.847
N         -0.10760        1.32040        0.00920
C          0.07390       -0.01650        0.00230
O          1.12720       -0.61080       -0.00880
N         -1.16360       -0.73190        0.01050
C         -1.29500       -2.08880        0.00750
C         -2.64170       -2.35110        0.01790
C         -3.25620       -1.07380        0.02690
N         -2.36430       -0.09590        0.02260
H          0.70480        1.90990        0.00240
H         -1.04110        1.69820        0.01690
H         -0.42050       -2.71690       -0.00170
H         -3.11830       -3.31760        0.01890
H         -4.31030       -0.83600        0.03640
