22
gdb 6175	3.21039	1.33704	1.1877	1.3684	78.78	-0.2529	0.077	0.3299	1158.0268	0.197607	-350.202606	-350.192618	-350.191674	-350.236808	37.186
C         -0.02210        1.52420       -0.17100
C          0.02000        0.02250        0.12290
O          0.68770       -0.24060        1.35970
C         -1.36310       -0.59550        0.09100
C         -1.93440       -1.19260       -1.17850
C         -1.60270       -2.08700       -0.00510
C         -0.42680       -3.04050       -0.11610
C         -2.76290       -2.64510        0.79950
H          0.98490        1.94820       -0.13130
H         -0.44980        1.71980       -1.15950
H         -0.64190        2.04560        0.56920
H          0.65300       -0.46160       -0.62850
H          0.14500        0.12860        2.06520
H         -2.07910       -0.05700        0.71310
H         -2.97570       -1.00330       -1.41850
H         -1.28260       -1.23480       -2.04660
H          0.36000       -2.65860       -0.77100
H          0.02270       -3.22410        0.86550
H         -0.75460       -4.00360       -0.52480
H         -3.14990       -3.56580        0.34670
H         -2.45240       -2.88600        1.82340
H         -3.59020       -1.93080        0.86000
