13
gdb 1771	4.91277	1.9576	1.77309	3.1327	55.37	-0.257	0.0164	0.2734	723.9167	0.102074	-340.622886	-340.615968	-340.615024	-340.653424	25.678
N         -0.21770        1.38700        0.00770
C         -0.04890       -0.04740       -0.01010
C         -0.49970       -0.78020        1.25470
C         -1.38260       -0.81100        0.04560
O         -2.54410       -0.06930       -0.01760
C          1.04790       -0.59050       -0.77090
N          1.92670       -1.00390       -1.40160
H          0.48340        1.83600        0.58850
H         -0.13340        1.77010       -0.92910
H          0.04620       -1.67470        1.53060
H         -0.79960       -0.14080        2.07780
H         -1.45240       -1.73510       -0.51740
H         -2.28080        0.85000        0.15140
