19
gdb 4107	2.84762	1.81747	1.17249	0.7843	74.52	-0.2373	0.0142	0.2515	1040.9074	0.165695	-365.049473	-365.041233	-365.040289	-365.082007	31.236
C         -0.28750        1.50200        0.06710
C          0.05820        0.01640       -0.00620
C          0.95250       -0.40890       -1.19060
C          1.52010       -1.77400       -0.75930
C          1.79470       -1.60750        0.75020
C          0.82700       -0.52750        1.18640
N          0.65280       -0.06340        2.35760
O          1.47920       -0.72010        3.29240
H          0.62180        2.10980        0.12140
H         -0.85440        1.81310       -0.81630
H         -0.88440        1.71890        0.95630
H         -0.87870       -0.55870       -0.07690
H          0.40800       -0.44650       -2.13810
H          1.76780        0.31700       -1.30840
H          0.76630       -2.55390       -0.91800
H          2.40960       -2.06610       -1.32310
H          1.66770       -2.52380        1.33370
H          2.81890       -1.26470        0.94400
H          1.25240       -0.26970        4.11260
