19
gdb 13664	5.27081	0.91803	0.8358	1.4412	78.51	-0.2281	0.0578	0.2859	1388.186	0.163412	-327.863488	-327.854374	-327.85343	-327.897631	33.096
C         -0.03510        1.50560       -0.38290
C          0.00230        0.03100       -0.04350
C          1.28450       -0.72900       -0.00890
N          0.52870       -0.49140        1.21960
C          1.09910        0.41870        2.20230
C          1.87830       -0.39630        3.25200
C          2.46500        0.44370        4.28770
C          2.93600        1.16270        5.12800
H          0.89710        2.01810       -0.13440
H         -0.20650        1.63300       -1.45690
H         -0.85240        2.01180        0.14290
H         -0.88650       -0.50960       -0.36810
H          1.34040       -1.75990       -0.34920
H          2.19780       -0.15240       -0.15900
H          1.77290        1.17550        1.77140
H          0.28250        0.95480        2.69790
H          1.20050       -1.13440        3.69570
H          2.66640       -0.96840        2.74590
H          3.35710        1.78500        5.87800
