13
gdb 583	9.03104	2.42288	2.07708	3.5897	50.79	-0.2469	0.0288	0.2757	602.5288	0.108445	-286.498633	-286.492413	-286.491469	-286.528974	21.624
O          0.16780        0.50250       -1.23870
C          0.12330        1.34290       -0.36900
N          1.18760        1.76820        0.37070
C          2.49080        1.17990        0.27050
C          3.33070        1.47600       -0.94140
C          3.68560        2.08810        0.39020
H         -0.80710        1.87730       -0.08520
H          1.00080        2.38870        1.14360
H          2.57490        0.18120        0.69210
H          3.94830        0.67560       -1.33090
H          2.89570        2.12130       -1.69430
H          3.49560        3.14810        0.52100
H          4.55170        1.71710        0.92590
