13
gdb 3256	6.30027	2.3818	2.1442	0.5434	53.41	-0.2559	0.0723	0.3282	621.8216	0.101225	-344.38026	-344.374613	-344.373669	-344.409553	21.628
C         -0.03160        1.50610       -0.03520
O          1.15650        0.69550        0.05750
C         -0.09830        0.04910        0.00760
C         -0.54480       -0.95320        1.10170
C         -0.89560       -1.92220       -0.04290
O         -1.84920       -1.25760       -0.87880
C         -0.45730       -0.96280       -1.07320
H         -0.26700        2.08280        0.85780
H         -0.16580        2.03060       -0.97980
H          0.31330       -1.27520        1.69770
H         -1.37490       -0.66900        1.75180
H         -0.89350       -3.00520       -0.04750
H         -0.03320       -1.10100       -2.06060
