16
gdb 18353	3.43692	2.21248	1.61016	0.8927	64.42	-0.2488	-0.0045	0.2444	803.0185	0.132176	-383.720298	-383.713599	-383.712655	-383.751352	25.819
O          0.39210        1.21130       -0.57670
C          0.08450       -0.09040       -0.09300
C          0.58870       -0.33940        1.31460
C         -0.35040       -0.80300        2.13930
C         -1.67060       -0.97710        1.43680
O         -2.62970        0.07130        1.73980
C         -2.39530        0.69380        0.45750
C         -1.42730       -0.42470        0.01340
H          0.16630        1.84260        0.11510
H          0.57020       -0.75930       -0.81310
H          1.61820       -0.12310        1.58140
H         -0.21770       -1.02270        3.19290
H         -2.11910       -1.96870        1.56250
H         -3.31890        0.77390       -0.12620
H         -1.96020        1.69720        0.55380
H         -1.78960       -1.02330       -0.82120
