11
gdb 3811	8.14091	2.10921	1.69315	3.2877	48.38	-0.2703	-0.0391	0.2312	679.9443	0.078682	-376.51988	-376.51396	-376.513015	-376.549841	20.515
C         -0.03310        1.41360        0.00890
O          0.00410       -0.02010        0.00290
C         -1.17830       -0.62570        0.00980
N         -2.34130       -0.02810        0.02150
O         -3.26380       -1.05280        0.02470
N         -2.65520       -2.27410        0.01480
C         -1.37620       -2.03940        0.00550
H          1.00760        1.73610        0.00170
H         -0.55670        1.78650       -0.87620
H         -0.54200        1.77940        0.90550
H         -0.64650       -2.83290       -0.00360
