12
gdb 11699	4.29008	1.70115	1.38042	5.0097	56.85	-0.277	-0.0563	0.2207	844.6212	0.08256	-418.4754	-418.468805	-418.467861	-418.506505	23.878
O          0.00660       -0.02300       -0.05050
C          0.04740        1.17750       -0.10460
C          1.27960        1.98070       -0.03940
C          1.40350        3.41260        0.37980
C          1.80030        3.02490       -1.03260
C          3.06580        2.20180       -0.95560
O          4.12120        2.16140       -1.49030
O          2.57720        1.34940        0.03080
H         -0.86650        1.80450       -0.20910
H          0.48080        3.98170        0.44600
H          2.16000        3.65950        1.11690
H          1.34340        3.43860       -1.91980
