17
gdb 16501	3.73879	2.27902	1.94283	1.5191	66.67	-0.2289	0.079	0.3079	759.72	0.143927	-363.796975	-363.79064	-363.789696	-363.826988	26.103
C          0.00440        1.47580        0.01840
C          0.03390       -0.02450       -0.00430
N         -0.85330       -0.85210        0.85080
C          0.62310       -0.90920        1.02490
C          1.33750       -1.92280        0.10350
C          0.28600       -2.27610       -0.97150
C          0.54600       -0.78300       -1.26190
O          1.95130       -1.00730       -0.87890
H          0.93310        1.87910       -0.39850
H         -0.83100        1.87120       -0.57130
H         -0.09770        1.85540        1.04090
H         -1.23590       -0.25450        1.58370
H          1.08410       -0.54820        1.93670
H          2.03600       -2.63720        0.53730
H          0.72410       -2.90260       -1.74760
H         -0.70640       -2.60380       -0.67080
H          0.42440       -0.31550       -2.23910
