19
gdb 4828	4.49296	1.30221	1.08689	1.8294	80.42	-0.1854	0.0481	0.2334	1153.5979	0.166059	-327.980814	-327.972178	-327.971234	-328.014331	31.595
C         -0.26520        1.53790        0.17180
C          0.11560        0.05700       -0.01190
C          0.87630       -0.52300        1.13850
C          2.19280       -0.90700        1.25640
C          2.39640       -1.37050        2.58810
C          1.20050       -1.26200        3.26030
C          0.82520       -1.60170        4.66480
N          0.28810       -0.74420        2.36670
H          0.62930        2.15340        0.30560
H         -0.81530        1.91270       -0.69740
H         -0.89850        1.68160        1.05390
H         -0.79680       -0.52740       -0.19860
H          0.73160       -0.05060       -0.91040
H          2.92870       -0.85950        0.46740
H          3.31630       -1.74720        3.01010
H          0.46890       -0.72720        5.22470
H          0.03500       -2.36220        4.71360
H          1.69460       -1.99800        5.19460
H         -0.67870       -0.56460        2.57800
