9
gdb 352	8.85788	2.30124	1.84768	4.1197	41.54	-0.3004	-0.0881	0.2122	596.5667	0.059291	-321.230055	-321.223616	-321.222672	-321.260329	20.617
O          0.02290        1.41380        0.00930
C         -0.01950        0.01910        0.00260
C         -1.46570       -0.43580        0.01360
O         -2.42790        0.28020        0.02610
C         -1.60720       -1.91160        0.00740
N         -1.70570       -3.06360        0.00260
H          0.94410        1.69000        0.00200
H          0.45230       -0.43530       -0.88720
H          0.46850       -0.44430        0.87900
