19
gdb 1578	6.56616	1.16957	1.05454	2.2837	64.88	-0.2513	0.076	0.3273	1134.6836	0.169225	-348.040439	-348.031116	-348.030172	-348.074454	31.91
C         -0.02160        1.36980        0.00570
O         -0.00410       -0.03590        0.01270
C         -1.29640       -0.60270        0.01750
C         -1.16910       -2.12490        0.05540
C         -0.45430       -2.60410        1.32360
C         -2.54700       -2.76960       -0.09610
O         -2.37010       -4.17460       -0.20200
H          1.01650        1.71130        0.00190
H         -0.52980        1.76900       -0.88710
H         -0.52670        1.77840        0.89580
H         -1.86590       -0.24420        0.89470
H         -1.85320       -0.28340       -0.88130
H         -0.57510       -2.42370       -0.81810
H         -1.02030       -2.31690        2.21910
H         -0.35840       -3.69170        1.32000
H          0.53910       -2.15660        1.39570
H         -3.17340       -2.51400        0.77540
H         -3.05020       -2.36860       -0.99120
H         -3.23850       -4.58560       -0.23210
