15
gdb 17187	4.17324	1.86635	1.609	2.2892	60.59	-0.2403	0.0488	0.2891	810.7427	0.11872	-399.670727	-399.66405	-399.663105	-399.701705	25.66
O          0.01700        1.38280        0.02600
C          0.00090       -0.03280        0.00680
C         -1.40000       -0.55280        0.05280
O         -2.30780       -0.15680       -1.02900
C         -3.14500       -0.97020       -0.15610
C         -2.00640       -1.98170        0.20930
N         -2.13410       -1.81790        1.69380
C         -2.49050       -0.45960        1.16690
H         -0.58530        1.67620       -0.66760
H          0.50830       -0.43570       -0.88420
H          0.54210       -0.38050        0.89210
H         -4.18870       -1.13110       -0.42960
H         -1.71540       -2.90980       -0.28340
H         -2.97220       -2.29740        2.03110
H         -2.75630        0.39190        1.79250
