9
gdb 21778	7.26911	1.43566	1.19888	4.2545	54.33	-0.2866	-0.0751	0.2115	879.6099	0.047625	-433.310222	-433.304031	-433.303087	-433.340786	22.077
O          0.09780        0.00560        0.00270
C         -0.00110        1.18380        0.00960
O         -1.14980        1.91860        0.02950
N         -0.83370        3.29050        0.03150
C          0.45570        3.31840        0.01280
O          1.04200        2.09210       -0.00110
C          1.25560        4.47650        0.00690
C          1.94960        5.45680        0.00170
H          2.56030        6.32720       -0.00290
