17
gdb 1485	3.53439	1.78413	1.27293	4.0656	62.08	-0.2745	0.0105	0.285	954.2536	0.145953	-346.890881	-346.882317	-346.881372	-346.924505	29.321
C         -0.01900        1.54200       -0.05030
C          0.01480        0.01230       -0.04710
C          0.72520       -0.58950       -1.25900
C          0.80520       -2.11150       -1.21790
O         -0.01300       -0.19730       -2.43970
C          0.66940        0.25550       -3.50410
O          0.14340        0.55850       -4.53340
H          0.99310        1.96250       -0.05190
H         -0.54310        1.91970       -0.93220
H         -0.53410        1.92190        0.83650
H          0.52500       -0.35200        0.85260
H         -1.00550       -0.38790       -0.01320
H          1.73800       -0.16670       -1.33200
H         -0.19840       -2.54560       -1.18490
H          1.31670       -2.50010       -2.10320
H          1.35560       -2.44050       -0.33130
H          1.76030        0.32260       -3.31930
