16
gdb 10059	3.39835	1.26134	0.97817	2.8118	66.89	-0.2519	-0.0252	0.2267	1153.7451	0.126646	-383.705212	-383.695803	-383.694859	-383.740221	32.258
O          0.07240        1.38180        0.26430
C         -0.01080       -0.00330        0.00130
C         -1.45710       -0.53240        0.01080
C         -1.46030       -2.07380       -0.13370
C         -2.79660       -2.63720       -0.27290
C         -3.90870       -3.07810       -0.38300
C         -2.13450       -0.10980        1.30380
O         -3.04620        0.66840        1.37940
H         -0.47840        1.84740       -0.37410
H          0.46230       -0.27190       -0.95670
H          0.56880       -0.49050        0.79460
H         -2.02130       -0.08440       -0.81490
H         -0.84840       -2.34950       -1.00190
H         -0.96220       -2.51720        0.73960
H         -4.89040       -3.47190       -0.47810
H         -1.69800       -0.58360        2.21570
