18
gdb 16697	2.69423	2.40261	1.79805	1.7728	66.48	-0.2427	0.066	0.3088	819.4481	0.154806	-384.915094	-384.907826	-384.906882	-384.946129	28.667
C         -0.27230        1.62260       -0.10910
C          0.00640        0.13270        0.00570
C          1.17340       -0.58760       -0.71840
C          2.45280        0.13500       -0.25280
C          2.12770        0.13760        1.27940
O          2.02890        1.40790        1.89850
C          0.74720       -0.54750        1.18870
O          1.06820       -1.65130        0.28730
H          0.60210        2.23180        0.11850
H         -0.62160        1.86480       -1.11940
H         -1.06380        1.91510        0.58910
H         -0.90060       -0.44940       -0.17970
H          1.10910       -0.93740       -1.74930
H          3.34680       -0.44180       -0.49900
H          2.55860        1.14790       -0.65110
H          2.81760       -0.51030        1.83360
H          2.91700        1.76240        2.00070
H          0.25980       -0.84310        2.11760
