19
gdb 14956	3.90044	1.54121	1.222	3.9533	73.35	-0.2367	0.0334	0.2701	1014.9529	0.168576	-365.112825	-365.105424	-365.10448	-365.144676	28.332
O         -0.09590       -0.03490       -0.10470
C         -0.01410        1.17580       -0.06430
N          1.14170        1.89480       -0.04980
C          2.43860        1.22750       -0.07190
C          3.30090        1.68070        1.11280
C          3.39300        3.21280        1.17400
C          1.99230        3.84400        1.19190
C          1.15860        3.34660        0.00270
H         -0.90410        1.83630       -0.03100
H          2.24510        0.15420       -0.05460
H          2.94980        1.46740       -1.01660
H          2.85710        1.30000        2.04100
H          4.29830        1.23630        1.02630
H          3.96390        3.52810        2.05360
H          3.94310        3.57900        0.29570
H          1.47800        3.57550        2.12310
H          2.05730        4.93710        1.15950
H          1.58400        3.74340       -0.93240
H          0.12610        3.70380        0.06680
