15
gdb 4148	3.32006	1.53024	1.11568	0.9885	71.35	-0.2476	0.0006	0.2482	1034.6524	0.116847	-362.572085	-362.564007	-362.563063	-362.604856	29.646
O         -0.13630        1.36240        0.03580
N          0.02410       -0.03370        0.07240
C         -1.09360       -0.61980        0.00700
C         -2.54110       -0.21830       -0.17630
C         -2.85700       -1.71260       -0.49020
C         -1.40310       -2.11690       -0.03010
C         -0.62030       -2.98130       -0.88890
C          0.01030       -3.70070       -1.61670
H          0.77580        1.67090        0.06620
H         -3.00240        0.15480        0.74370
H         -2.72830        0.50870       -0.96990
H         -3.66830       -2.17310        0.07430
H         -3.00520       -1.89910       -1.55420
H         -1.42370       -2.52220        0.98960
H          0.57740       -4.33090       -2.25580
