14
gdb 5002	3.42617	2.32039	1.38493	2.7325	69.86	-0.186	-0.0168	0.1692	832.2033	0.110612	-378.79894	-378.792396	-378.791452	-378.829265	26.053
N          0.01050        1.39000        0.13180
C         -0.06400        0.01790        0.04450
C         -1.21180       -0.73130        0.01990
C         -1.15850       -2.15350       -0.01150
C          0.04620       -2.77680       -0.02080
N          1.19360       -2.02040       -0.00680
C          1.24770       -0.63810        0.01470
O          2.31400       -0.02750       -0.00070
H          0.93130        1.74360       -0.09310
H         -0.76140        1.92440       -0.23280
H         -2.17770       -0.23480        0.03110
H         -2.06950       -2.73700       -0.02450
H          0.18160       -3.84950       -0.03980
H          2.09880       -2.46830       -0.03060
