10
gdb 127	27.12022	2.32375	2.19911	3.7158	39.41	-0.2914	0.0323	0.3237	519.4529	0.079045	-247.21445	-247.20867	-247.207726	-247.243281	18.636
O         -0.07950        1.43070        0.01040
C          0.04310        0.02240        0.00160
C         -1.38910       -0.52770        0.01240
C         -1.42050       -1.98630        0.00470
N         -1.42540       -3.14160       -0.00160
H          0.80260        1.81340        0.00490
H          0.56810       -0.34130       -0.89350
H          0.58520       -0.35090        0.88250
H         -1.91080       -0.15590        0.90050
H         -1.92770       -0.14610       -0.86130
