15
gdb 19485	3.53871	2.04038	1.86648	1.3217	71.43	-0.2191	0.0047	0.2238	777.4203	0.119263	-325.466228	-325.459552	-325.458608	-325.49679	26.279
C         -0.12920       -1.23550       -0.07140
C         -0.06960       -0.03790        0.02820
C         -0.00890        1.39320        0.07060
C          0.51280        2.15540        1.26400
C          1.29430        1.39310        2.27410
C          2.40330        0.90940        1.71580
C          2.49040        1.32440        0.26500
N          1.27730        2.13660        0.00120
H         -0.19180       -2.29320       -0.14120
H         -0.78000        1.88410       -0.52000
H          0.01400        3.08210        1.53830
H          0.97040        1.25840        3.29780
H          3.14020        0.27780        2.19740
H          3.37340        1.94280        0.05960
H          2.53040        0.46430       -0.41480
