13
gdb 21568	3.99467	1.8973	1.28729	4.9204	64.83	-0.2243	-0.0444	0.1799	867.8974	0.098371	-394.824816	-394.818241	-394.817297	-394.855319	25.436
N          0.03510        1.39390        0.15080
C         -0.03010        0.02340        0.05420
C         -1.20320       -0.68340        0.03330
C         -1.20040       -2.12370       -0.00880
O         -2.16270       -2.87310       -0.02940
N          0.10390       -2.66360       -0.03410
N          1.26350       -2.01070       -0.02070
C          1.20770       -0.71430        0.02400
H          0.88180        1.84050       -0.16370
H         -0.80360        1.91080       -0.06190
H         -2.17120       -0.19620        0.05010
H          0.16990       -3.67200       -0.06800
H          2.16140       -0.19630        0.04240
