13
gdb 18189	4.35918	1.85666	1.51358	5.085	62.03	-0.2742	-0.0272	0.2469	803.9515	0.096673	-361.453982	-361.447722	-361.446778	-361.484524	23.586
N         -0.03230       -1.18480       -0.15880
C         -0.01220       -0.03330       -0.06830
C         -0.00750        1.42710        0.03420
C         -0.62300        1.94600        1.33400
C          0.19390        2.78700        1.96750
C          1.49570        2.90100        1.24290
O          2.20080        1.64020        1.15950
C          1.40500        2.03720        0.05490
H         -0.55930        1.81950       -0.83140
H         -1.59690        1.61270        1.66940
H         -0.02130        3.29960        2.89620
H          2.12590        3.78220        1.30160
H          1.92810        2.21380       -0.87980
