24
gdb 6984	2.29397	2.10914	1.50792	0.0658	83.8	-0.2896	0.072	0.3616	1016.99	0.223818	-314.301233	-314.292034	-314.29109	-314.334217	35.853
C         -0.35710        1.46050       -0.01420
C         -0.00690       -0.02720        0.00350
C          0.87730       -0.47520       -1.18380
C          1.62650       -1.74930       -0.70360
C          1.19500       -1.95180        0.76760
C          0.73160       -0.56250        1.26700
C          1.95070        0.30240        1.63990
C         -0.19920       -0.67590        2.48010
H          0.54140        2.08640       -0.00790
H         -0.92370        1.71350       -0.91690
H         -0.97130        1.74560        0.84690
H         -0.94940       -0.59140       -0.05210
H          0.27830       -0.65380       -2.08180
H          1.58790        0.31790       -1.44260
H          1.38680       -2.62440       -1.31400
H          2.70930       -1.61050       -0.77760
H          0.34770       -2.64670        0.81610
H          1.98910       -2.37670        1.39020
H          2.64500        0.42540        0.80270
H          1.64960        1.30170        1.96990
H          2.50650       -0.16090        2.46260
H          0.31520       -1.13830        3.33020
H         -0.55380        0.30690        2.81020
H         -1.07780       -1.28870        2.24920
