17
gdb 10945	5.42437	1.35318	1.21978	4.2969	71.03	-0.2321	0.0256	0.2577	1011.5883	0.141949	-363.853021	-363.84534	-363.844396	-363.885091	28.477
C         -0.18900        1.52300        0.04700
C          0.06720        0.04640       -0.00410
C         -0.74380       -0.98160        0.75100
C          0.73810       -0.88000        1.00760
N          1.48010       -1.51790       -0.07050
C          0.88500       -0.65690       -1.10860
C          1.92460       -2.79460       -0.19600
O          2.19270       -3.33120       -1.25050
H          0.72380        2.09390       -0.15550
H         -0.93950        1.81910       -0.69550
H         -0.56350        1.82520        1.03000
H         -1.37690       -0.57270        1.53310
H         -1.14640       -1.86060        0.25380
H          1.19280       -0.67260        1.96900
H          0.33280       -1.20100       -1.88120
H          1.62930       -0.00750       -1.58060
H          2.05650       -3.28140        0.79290
