18
gdb 18699	3.09412	2.17086	1.4023	1.8498	73.26	-0.2346	0.0109	0.2455	915.0707	0.154875	-347.804879	-347.797533	-347.796588	-347.836322	28.292
C         -0.11430        1.51210        0.08720
C          0.00230        0.01600       -0.00050
C         -0.02020       -0.66530       -1.14950
C          0.10880       -2.16650       -1.23710
C          0.91870       -2.77000       -0.07270
C          0.58320       -2.12620        1.26600
O          1.46570       -1.08750        1.71140
C          0.13420       -0.72870        1.28590
H          0.77420        1.94640        0.56230
H         -0.22920        1.96480       -0.90130
H         -0.97420        1.81020        0.70080
H         -0.14630       -0.12510       -2.08580
H         -0.89610       -2.61400       -1.26810
H          0.57750       -2.44220       -2.18820
H          0.75470       -3.85120       -0.02210
H          1.98740       -2.61370       -0.25230
H          0.25340       -2.78960        2.06500
H         -0.50090       -0.38420        2.10370
