22
gdb 13138	3.80224	1.11215	0.94559	1.6664	78.64	-0.2393	0.0859	0.3252	1329.7215	0.199475	-350.198107	-350.188641	-350.187697	-350.233129	33.874
C         -0.24370        1.50510        0.02260
C         -0.03580       -0.01050       -0.02210
C          0.79010       -0.46840       -1.23130
C          0.94480       -1.97890       -1.27890
O         -0.32470       -2.65830       -1.45580
C          0.16930       -3.40000       -2.58720
C          1.53490       -2.67930       -2.53920
C          1.90930       -1.83820       -3.75300
H          0.71290        2.03770        0.07460
H         -0.76900        1.85920       -0.87160
H         -0.83630        1.80050        0.89410
H          0.45970       -0.34220        0.90010
H         -1.00500       -0.52080       -0.05080
H          0.30990       -0.11860       -2.15280
H          1.78910       -0.01140       -1.19740
H          1.42500       -2.32020       -0.34870
H          0.19310       -4.48000       -2.39240
H         -0.42960       -3.21840       -3.48980
H          2.36290       -3.34770       -2.28810
H          1.08740       -1.18740       -4.06650
H          2.78130       -1.20700       -3.55230
H          2.15890       -2.48520       -4.60100
