17
gdb 14618	6.64531	0.69944	0.68583	3.4309	72.4	-0.2539	0.0274	0.2813	1602.263	0.140606	-363.8574	-363.84812	-363.847175	-363.893052	31.922
O          0.29710        0.66500       -1.47180
C          0.15310        1.42370       -0.53700
N          1.08750        1.68210        0.41820
C          2.41740        1.09630        0.40520
C          3.51300        2.11490        0.07120
C          4.91250        1.46840        0.06950
C          5.97550        2.42240       -0.21940
C          6.83340        3.22960       -0.45810
H         -0.78130        1.99200       -0.35810
H          0.86040        2.35780        1.13050
H          2.62000        0.63010        1.37830
H          2.39000        0.30220       -0.34510
H          3.31120        2.55680       -0.90960
H          3.49800        2.93540        0.79850
H          5.10060        0.99700        1.04360
H          4.93760        0.65650       -0.66910
H          7.60000        3.93250       -0.67100
