18
gdb 6735	6.10889	0.69735	0.65874	1.2913	74.09	-0.2397	0.0364	0.2761	1706.0184	0.150538	-384.901756	-384.891557	-384.890613	-384.938657	34.786
C         -0.06580        1.54600       -0.05090
C         -0.04290        0.01750       -0.08300
O          0.94230       -0.50880        0.79270
C         -1.44120       -0.57240        0.21190
C         -1.49450       -2.02560        0.12760
C         -1.53670       -3.22490        0.03880
C         -1.56460       -4.67870       -0.04290
O         -2.42030       -5.08610       -1.10580
H          0.93660        1.93890       -0.23870
H         -0.74670        1.95250       -0.80590
H         -0.39760        1.91060        0.92960
H          0.26680       -0.32160       -1.07770
H          0.71230       -0.24540        1.69100
H         -1.75730       -0.24040        1.21240
H         -2.16530       -0.13830       -0.49010
H         -0.53750       -5.04870       -0.19600
H         -1.90840       -5.08840        0.92130
H         -2.40000       -6.04820       -1.13500
