14
gdb 20929	7.18128	1.17924	1.04632	1.2227	62.01	-0.2479	-0.0164	0.2315	1094.8948	0.106576	-415.838543	-415.831096	-415.830152	-415.871956	25.817
C         -0.09030        1.04360        0.98490
C          0.24120        0.30870       -0.31180
N          1.06430       -0.86490       -0.02870
C          1.92410       -1.22750       -0.85140
O          2.75220       -2.32160       -0.65160
C          3.53890       -2.36160       -1.74200
N          3.33260       -1.45740       -2.61870
O          2.26450       -0.69440       -2.06990
H         -0.59290        0.37300        1.68750
H          0.82030        1.41410        1.46500
H         -0.74570        1.89700        0.78510
H         -0.68840       -0.03130       -0.78750
H          0.72850        0.99090       -1.02140
H          4.28390       -3.13850       -1.81290
