13
gdb 20681	3.93536	1.99594	1.33525	1.7819	65.33	-0.2611	-0.0653	0.1958	862.5346	0.095661	-394.764894	-394.757946	-394.757001	-394.796519	24.941
C          0.00110        1.49350       -0.05590
C         -0.07570        0.00300        0.03310
N         -1.13080       -0.65580       -0.25350
C         -1.08180       -2.04810       -0.13220
N         -2.11240       -2.75030       -0.40820
C          0.21040       -2.58580        0.32170
N          1.25150       -1.89700        0.60170
O          1.11610       -0.50900        0.45250
H          0.78880        1.78930       -0.75560
H         -0.95980        1.88050       -0.39140
H          0.25560        1.91710        0.92050
H         -1.91170       -3.74240       -0.26870
H          0.34040       -3.65920        0.44530
