13
gdb 1648	4.97341	2.02545	1.45255	8.8758	52.77	-0.2307	-0.0336	0.1971	791.2849	0.101417	-377.816463	-377.808824	-377.80788	-377.849019	25.86
C          0.11510        1.48530        0.00900
N         -0.08860        0.05020        0.00300
C         -1.22770       -0.59050        0.01060
N         -2.43600       -0.07700        0.02530
H         -3.14710       -0.80950        0.02820
H         -2.66760        0.90260        0.03300
C         -1.13950       -2.16940        0.00090
O          0.03320       -2.56500       -0.01260
O         -2.25740       -2.69700        0.00920
H          1.18530        1.69330       -0.00030
H         -0.33440        1.95080       -0.87570
H         -0.31690        1.94080        0.90760
H          0.67640       -0.63150       -0.00820
