15
gdb 18142	3.47269	1.97078	1.59504	4.0648	64.44	-0.2725	0.0249	0.2974	818.9419	0.119754	-362.641226	-362.634155	-362.63321	-362.672406	26.754
O          0.05090        1.39710        0.33410
C         -0.04140        0.02130        0.12890
C         -0.44680       -0.85720        1.26420
C         -1.49310       -0.13940        2.12530
C         -2.43610       -0.04480        0.87100
C         -2.91160        1.26380        0.43370
N         -3.28880        2.29230        0.06260
C         -1.34760       -0.71500        0.01500
H         -0.36400        1.85660       -0.40430
H          0.74190       -0.39910       -0.50280
H          0.14770       -1.70330        1.58460
H         -1.92930       -0.76730        2.90250
H         -1.17440        0.81240        2.55080
H         -3.30010       -0.70180        0.99460
H         -1.55400       -1.41090       -0.78900
