20
gdb 6140	4.62191	1.18345	1.124	0.9121	81.86	-0.2525	0.0525	0.305	1152.0797	0.175023	-311.837157	-311.828267	-311.827323	-311.870098	34.182
C         -0.14410        1.51060       -0.00170
C         -0.01150       -0.01480        0.00450
C         -1.36000       -0.67880       -0.25450
C          1.17380       -0.50470       -0.88680
C          2.07680       -0.58470        0.38600
C          0.77620       -0.53070        1.25050
C          2.96320       -1.71930        0.53710
C          3.68130       -2.67700        0.65910
H          0.81590        2.00470        0.18290
H         -0.51960        1.86640       -0.96800
H         -0.84340        1.84520        0.77310
H         -1.76850       -0.37800       -1.22660
H         -1.27240       -1.77030       -0.25140
H         -2.09210       -0.39910        0.51240
H          0.99190       -1.49870       -1.30270
H          1.51150        0.15850       -1.68740
H          2.64700        0.34230        0.50340
H          0.80060        0.11210        2.13440
H          0.46130       -1.53340        1.54980
H          4.32070       -3.51730        0.76790
