14
gdb 5282	5.03355	1.58946	1.22451	4.4118	67.41	-0.2203	-0.017	0.2033	924.9129	0.110032	-378.794101	-378.787223	-378.786279	-378.825238	26.182
N         -0.13670        1.37140        0.02300
C          0.01770       -0.00130       -0.16400
O          1.09710       -0.50040       -0.41930
C         -1.22270       -0.78160       -0.07700
C         -1.38190       -2.14480        0.08570
C         -2.77000       -2.41420        0.12710
C         -3.42750       -1.20970       -0.02370
N         -2.48700       -0.22450       -0.12580
H          0.74730        1.85810        0.08470
H         -0.81310        1.66830        0.71150
H         -0.56910       -2.84690        0.18170
H         -3.24010       -3.37700        0.25440
H         -4.48020       -0.98030       -0.07170
H         -2.67370        0.72820       -0.38900
