15
gdb 21947	6.85347	1.04177	0.96809	3.3191	62.9	-0.2492	-0.0023	0.2469	1156.8411	0.120443	-395.97472	-395.967161	-395.966217	-396.007694	26.685
O          0.11050        1.42910        0.13830
C          0.04590        0.01620        0.21250
C         -1.36090       -0.52460       -0.10110
C         -1.42960       -2.01450       -0.01020
C         -1.93580       -2.82720        0.97850
N         -1.68750       -4.08170        0.53350
N         -1.06510       -4.06830       -0.65840
N         -0.90730       -2.81940       -0.98650
H         -0.00030        1.68110       -0.78400
H          0.77690       -0.46510       -0.45290
H          0.31970       -0.24420        1.24040
H         -2.07800       -0.06410        0.58540
H         -1.63820       -0.21770       -1.11700
H         -2.43240       -2.62630        1.91270
H         -1.91270       -4.96500        0.96240
