16
gdb 9134	3.59306	0.94296	0.81061	2.9515	74.37	-0.2682	0.0067	0.2749	1423.4215	0.129645	-342.761667	-342.752268	-342.751324	-342.797421	32.007
C         -0.66610        1.17850       -0.15460
C          0.57680        0.30340        0.09010
C          1.04530       -0.37370       -1.11390
C          1.41570       -0.92400       -2.11750
C          1.86670       -1.59070       -3.33940
N          1.23220       -2.90710       -3.49030
C          1.65450       -0.70160       -4.51320
N          1.47930       -0.06290       -5.46060
H         -0.45650        1.95300       -0.89680
H         -1.50030        0.57500       -0.52210
H         -0.97500        1.66450        0.77520
H          1.39020        0.91990        0.49290
H          0.35710       -0.44700        0.85990
H          2.94980       -1.76180       -3.27140
H          0.22460       -2.78850       -3.54460
H          1.52930       -3.32560       -4.36780
