14
gdb 2491	5.01147	3.04663	2.61469	2.1865	56.02	-0.2282	0.0654	0.2936	567.2721	0.114057	-324.500425	-324.494665	-324.493721	-324.529748	22.469
O         -0.07900        1.44380       -0.00250
C         -0.02910        0.06130        0.00900
C          0.51130       -0.76420       -1.19570
C         -0.45820       -1.84370       -0.72240
C         -1.30210       -0.87380        0.01180
N         -0.50500       -1.86230        0.78780
C          0.43590       -0.77410        1.21850
H          0.79210        1.78430       -0.23470
H          0.18000       -0.33470       -2.14470
H          1.58460       -0.98410       -1.22810
H         -0.73920       -2.76470       -1.21560
H         -2.36710       -0.71630        0.11190
H          1.49180       -1.06270        1.29200
H          0.08380       -0.36990        2.17070
