15
gdb 21661	3.43994	1.76526	1.17752	1.7497	63.38	-0.1996	0.0399	0.2394	961.1849	0.120554	-395.989464	-395.981436	-395.980492	-396.022661	28.798
N         -0.01730        1.37400        0.16780
C          0.04460       -0.01940        0.04650
N         -1.05940       -0.75920        0.02380
N         -0.59860       -2.03440       -0.01280
C          0.75150       -2.10900       -0.02850
C          1.22090       -0.81390        0.01280
C          2.64160       -0.35670        0.04990
O          3.48270       -1.49980       -0.00300
H          0.59680        1.85280       -0.47990
H         -0.96730        1.70160        0.03890
H         -1.26050       -2.78920       -0.02750
H          1.28250       -3.04590       -0.05910
H          2.85010        0.32120       -0.79800
H          2.82260        0.23030        0.96640
H          4.39370       -1.20310        0.07290
