14
gdb 4671	7.29258	1.299	1.11016	2.9696	66.98	-0.241	-0.0498	0.1911	1016.1315	0.107968	-378.783896	-378.776681	-378.775736	-378.815556	25.662
C         -0.01270        1.51190        0.04700
C          0.02190        0.02290       -0.03380
C         -0.05910       -0.78080       -1.12970
N          0.02310       -2.09060       -0.65560
C         -0.01530       -3.26410       -1.40720
O          0.06060       -4.36610       -0.93490
C          0.15060       -1.99350        0.71910
N          0.15320       -0.75620        1.11760
H          0.90440        1.89770        0.50450
H         -0.11930        1.96020       -0.94400
H         -0.84790        1.84810        0.67050
H         -0.16490       -0.56950       -2.18090
H         -0.12360       -3.05710       -2.48670
H          0.23370       -2.87750        1.33120
