18
gdb 17552	3.22497	2.11621	1.64521	1.7424	71.92	-0.2222	0.0816	0.3039	860.251	0.15267	-347.747307	-347.739813	-347.738869	-347.778565	29.508
C         -0.05690        1.58790        0.05620
C          0.02090        0.09140        0.00300
C         -0.87050       -0.85210        0.79880
C          0.61960       -0.94260        0.93000
O          1.17750       -1.70750       -0.14680
C          0.68870       -0.72860       -1.08110
C          0.26990       -1.09490       -2.46400
C          1.53270       -0.27200       -2.22210
H          0.90420        2.04650       -0.20000
H         -0.81140        1.97550       -0.63930
H         -0.33480        1.92870        1.05830
H         -1.38680       -0.38360        1.63210
H         -1.41270       -1.65720        0.31070
H          1.19130       -0.87120        1.84790
H          0.40160       -2.12980       -2.76030
H         -0.59660       -0.60390       -2.89510
H          1.52340        0.77970       -2.48980
H          2.48750       -0.76830       -2.35690
