14
gdb 10476	3.37036	1.2919	1.00682	5.4312	72.58	-0.2557	-0.0027	0.2529	1151.4549	0.106014	-341.54089	-341.532396	-341.531452	-341.57531	28.968
C         -0.00460        1.44690       -0.00680
C          0.01330       -0.00720        0.01570
C          0.03600       -1.21110        0.03390
C          0.05650       -2.64990        0.03260
C         -0.52640       -3.38980        1.20930
N         -1.22570       -3.40420       -0.06790
C          1.16120       -3.25920       -0.68610
N          2.05740       -3.73690       -1.23690
H          0.96300        1.83920       -0.33710
H         -0.76960        1.82450       -0.69350
H         -0.21040        1.85810        0.98720
H         -0.07970       -4.33580        1.49900
H         -0.89870       -2.77330        2.02180
H         -1.98530       -2.72710       -0.06860
