16
gdb 9247	5.09717	0.78729	0.70765	2.9517	73.1	-0.2644	-0.0592	0.2051	1526.0105	0.127435	-383.715275	-383.705606	-383.704662	-383.751453	32.005
C          0.11310        1.60520       -0.02840
C          0.03360        0.06440       -0.01240
C          0.66760       -0.55490       -1.27090
O         -0.06970       -0.08310       -2.38470
C          0.64590       -0.48950        1.18850
C          1.18090       -0.95110        2.16920
C          1.78560       -1.47880        3.36380
O          2.70280       -2.26820        3.37950
H          1.15550        1.93620        0.00570
H         -0.34260        1.97850       -0.94690
H         -0.40950        2.03090        0.83140
H         -1.02670       -0.22440       -0.01790
H          1.72620       -0.25820       -1.32490
H          0.63000       -1.65090       -1.19420
H          0.33970       -0.42180       -3.18580
H          1.33700       -1.09810        4.30430
