14
gdb 10116	2.76527	1.50579	1.10691	3.6147	60.81	-0.2927	-0.0073	0.2853	1050.7142	0.105704	-415.850605	-415.841996	-415.841051	-415.884735	28.93
O          0.02580        1.42420        0.10650
C          0.06100        0.03160       -0.04510
C         -1.34680       -0.58350       -0.00240
O         -1.86810       -0.23970        1.28030
C         -3.06790       -0.77410        1.63700
N         -3.52150       -0.53530        2.78450
C         -2.20460       -0.07200       -1.08670
N         -2.88890        0.29360       -1.94220
H         -0.40510        1.61200        0.94900
H          0.51840       -0.18240       -1.01500
H          0.65250       -0.46540        0.73800
H         -1.27260       -1.67480       -0.10690
H         -3.53140       -1.37870        0.84850
H         -4.42170       -0.99280        2.91250
