18
gdb 9151	5.65963	0.72063	0.67436	1.5135	73.96	-0.2597	0.0272	0.2869	1674.5391	0.151063	-384.903096	-384.892959	-384.892015	-384.939485	34.631
C         -0.05950        1.55730        0.07950
C         -0.04770        0.02870        0.12230
C         -1.45020       -0.57660       -0.09050
O         -2.03060       -0.15720       -1.32580
C         -1.42370       -2.03690        0.02910
C         -1.36560       -3.23930        0.10030
C         -1.37220       -4.69950        0.18260
O         -2.52370       -5.22800        0.82430
H          0.95260        1.95950        0.18160
H         -0.48080        1.91310       -0.86400
H         -0.66710        1.96960        0.89270
H          0.62030       -0.37270       -0.65090
H          0.34000       -0.33030        1.08240
H         -2.12240       -0.17020        0.67640
H         -1.56930       -0.62490       -2.03110
H         -1.24850       -5.11770       -0.82970
H         -0.51660       -5.04770        0.77210
H         -3.29450       -4.83080        0.40550
