16
gdb 7528	3.7334	1.27498	1.2191	4.4062	62.16	-0.267	0.0047	0.2717	1039.1306	0.127486	-420.877804	-420.869222	-420.868278	-420.9108	30.861
C          0.06700        1.55370       -0.31340
C         -0.00340        0.08060        0.00090
C          1.22210       -0.78800       -0.10580
C          0.61450       -0.48980        1.24950
O          1.22890        0.41040        2.11950
O         -1.18820       -0.55430       -0.46940
C         -2.30270       -0.39860        0.27890
O         -3.36110       -0.84320       -0.04980
H          0.98790        1.97980        0.08750
H          0.03710        1.71240       -1.39550
H         -0.77380        2.09280        0.13550
H          1.09550       -1.78590       -0.50920
H          2.15090       -0.29020       -0.36190
H          0.07470       -1.30730        1.72740
H          2.03050       -0.00120        2.45960
H         -2.11920        0.16450        1.21250
