20
gdb 6969	2.42655	2.25111	1.60155	1.523	75.07	-0.2425	0.0138	0.2563	914.8322	0.176798	-349.02044	-349.012112	-349.011168	-349.052529	32.783
C         -0.02710        1.50930        0.06300
C          0.00460       -0.02750        0.00560
C         -1.42270       -0.57090       -0.11240
C          0.92550       -0.47890       -1.16990
C          2.26130       -0.73050       -0.51400
C          2.15980       -0.79810        0.81150
C          0.73640       -0.60200        1.27560
O          0.59700        0.16700        2.46250
H          0.98430        1.93090        0.10270
H         -0.51460        1.91070       -0.83130
H         -0.58150        1.86030        0.93750
H         -1.92500       -0.18500       -1.00650
H         -1.42660       -1.66480       -0.17330
H         -2.02110       -0.28180        0.75860
H          0.54860       -1.40150       -1.63370
H          0.97590        0.26680       -1.97280
H          3.17300       -0.87960       -1.08300
H          2.96260       -1.00910        1.50970
H          0.29040       -1.56970        1.54340
H          1.10090        0.97930        2.34530
