15
gdb 7261	4.35212	1.17304	0.98716	1.049	60.44	-0.2741	-0.0398	0.2343	1137.887	0.116123	-436.960613	-436.951855	-436.950911	-436.994557	30.271
C          0.13130        0.97250       -0.75180
C         -0.09040       -0.00130        0.41460
O          0.30260        0.58600        1.62750
C         -1.53240       -0.45610        0.48660
N         -2.23120       -0.24210        1.51460
O         -1.93890       -1.07210       -0.68280
C         -2.76730       -2.16090       -0.61490
O         -3.26260       -2.63210       -1.58650
H          1.18000        1.27820       -0.75550
H         -0.10770        0.50620       -1.71040
H         -0.48710        1.86490       -0.62000
H          0.51120       -0.90700        0.22760
H         -0.47280        0.56600        2.20800
H         -3.20150       -0.54130        1.44750
H         -2.87840       -2.54050        0.41440
