12
gdb 8992	6.7758	1.0362	0.97092	3.5961	59.34	-0.2662	-0.0579	0.2083	1126.2412	0.080109	-418.466455	-418.458264	-418.45732	-418.500238	27.415
O         -0.17720        0.86150        0.88740
C          0.23820        1.48570       -0.04890
C          1.71730        1.52330       -0.41700
O          1.99190        2.44670       -1.47650
C          1.87820        3.74780       -1.13150
O          1.54450        4.13130       -0.03820
C          2.21050        4.60810       -2.24140
C          2.47500        5.37010       -3.13140
H         -0.42600        2.05360       -0.73680
H          2.30340        1.75860        0.47500
H          2.01690        0.54520       -0.80250
H          2.70940        6.04480       -3.91890
