12
gdb 16795	3.87798	2.17666	1.51694	1.8302	55.38	-0.2718	-0.0361	0.2357	764.6604	0.085955	-414.707494	-414.701526	-414.700582	-414.737686	22.545
O          0.03830       -0.03240       -0.04530
C          0.03620        1.16880        0.00990
N         -1.08010        1.99980        0.05500
C         -0.77580        3.36180        0.03180
O         -1.55700        4.26640        0.08690
N          0.65590        3.49340       -0.07870
C          1.33330        3.04870        1.15630
C          1.20070        2.12390       -0.00430
H         -2.02740        1.65810        0.12170
H          2.29120        3.52320        1.34040
H          0.72360        2.86900        2.03750
H          2.05520        1.87830       -0.62350
