16
gdb 2782	4.33236	2.10196	1.5648	3.6256	62.9	-0.2399	0.0391	0.2791	815.7186	0.137018	-325.80555	-325.798118	-325.797174	-325.837693	25.99
C         -0.18810        1.55790       -0.04820
C          0.15760        0.06670       -0.00360
N          0.77590       -0.41550       -1.21660
C          0.27460       -0.60040       -2.58240
C          1.67330       -1.17550       -2.94580
C          2.02940       -0.92500       -1.46120
O          2.98490       -1.08900       -0.74780
H          0.71080        2.15990       -0.20920
H         -0.89620        1.77870       -0.85350
H         -0.64790        1.86940        0.89470
H          0.87380       -0.13780        0.79840
H         -0.74600       -0.52230        0.20670
H         -0.55710       -1.31070       -2.65630
H          0.00160        0.32930       -3.09280
H          1.68920       -2.22600       -3.24110
H          2.25650       -0.58630       -3.65560
