14
gdb 3701	3.59589	3.41248	1.78973	0.6497	58.7	-0.2461	0.0073	0.2534	693.1978	0.114674	-320.779994	-320.773005	-320.772061	-320.811211	24.293
C          0.02670        1.51070       -0.04840
C          0.00760        0.01850        0.00730
N         -0.03030       -0.73310       -1.09510
N         -0.03550       -1.97250       -0.62120
N         -0.00430       -2.10240        0.69900
C          0.02390       -0.84030        1.13250
C          0.06500       -0.49990        2.58600
H          0.92740        1.91830        0.42450
H          0.00260        1.84750       -1.08660
H         -0.83460        1.94260        0.47360
H         -0.06180       -2.77240       -1.23130
H          0.96200        0.07720        2.83760
H         -0.80010        0.10470        2.88090
H          0.06550       -1.41260        3.18490
