18
gdb 20135	4.39113	1.67973	1.52583	2.2984	71.51	-0.213	0.0781	0.2911	890.7406	0.155434	-343.895776	-343.888775	-343.887831	-343.927165	27.356
C          1.16150       -0.95240       -0.42190
C          0.00550       -0.19200       -0.97430
N          0.54700        0.12500        0.34650
C         -0.19350       -0.23590        1.53490
C         -1.35500        0.71180        1.99640
C         -2.22270       -0.53350        2.20280
N         -2.39380       -1.14020        0.86470
C         -1.16840       -1.43530        1.65650
H          0.97160       -1.97800       -0.10870
H          2.17200       -0.76670       -0.77610
H          0.17590        0.57200       -1.72860
H         -0.95370       -0.69400       -1.02560
H          0.53620       -0.32440        2.34740
H         -1.11830        1.26680        2.90560
H         -1.73030        1.39430        1.23110
H         -2.94150       -0.72170        2.99010
H         -3.00850       -1.94670        0.97390
H         -0.92770       -2.45610        1.92970
