14
gdb 19545	4.57813	1.8044	1.71554	4.8175	67.17	-0.255	-0.0033	0.2516	785.3528	0.109481	-341.518303	-341.512316	-341.511372	-341.548382	23.349
N         -0.07130       -1.14630        0.00230
C         -0.04980        0.01190        0.00540
C         -0.03570        1.42350        0.00950
C         -0.77910        2.48780        0.78870
C          0.56760        3.07290        1.18010
N          1.19890        2.36510       -0.00540
C          0.53410        3.07960       -1.16830
C         -0.80110        2.49240       -0.74180
H         -1.68350        2.35460        1.36820
H          0.70260        4.15920        1.17940
H          0.95960        2.64650        2.10560
H          0.66930        4.16580       -1.16530
H          0.89940        2.65830       -2.10700
H         -1.72170        2.36270       -1.29580
