18
gdb 15350	3.35583	1.29249	1.01857	4.0398	72.87	-0.2415	0.0299	0.2714	1168.3825	0.153231	-343.969857	-343.961208	-343.960264	-344.003684	30.933
C         -0.34850        1.68320        0.41050
C          0.09870        0.29980       -0.05460
N          0.75620       -0.40860        1.04160
C         -0.04980       -1.27510        1.89200
C          0.97960       -1.84550        0.97630
C          0.54660       -2.70760       -0.20630
C          1.47340       -2.61980       -1.33650
N          2.21070       -2.54340       -2.22290
H          0.50500        2.25670        0.78170
H         -0.81010        2.23460       -0.41410
H         -1.08220        1.60570        1.21960
H         -0.77260       -0.24630       -0.45500
H          0.82350        0.39250       -0.87110
H          0.12850       -1.21180        2.96210
H         -1.09310       -1.43270        1.61460
H          1.93830       -2.15190        1.39090
H          0.49490       -3.75430        0.11620
H         -0.45480       -2.43890       -0.55400
