11
gdb 21392	5.75921	2.39051	1.68932	1.6957	56.18	-0.2479	-0.015	0.2329	673.2954	0.077172	-389.769144	-389.764024	-389.76308	-389.79825	19.502
N          0.01860        1.32330        0.04980
N          1.31130        1.78480        0.02520
C          2.06890        0.71850       -0.01500
N          1.29540       -0.41290       -0.01720
N          1.37740       -1.77490       -0.04480
C          0.08250       -2.09160       -0.01730
N         -0.82790       -1.06940        0.02590
C         -0.01310       -0.02990        0.02440
H         -0.74370        1.97610        0.08350
H          3.14470        0.73130       -0.04270
H         -0.22530       -3.12730       -0.02890
