15
gdb 19888	4.19869	1.90062	1.59293	1.3032	70.77	-0.2274	0.0319	0.2594	815.4709	0.118525	-325.390038	-325.383432	-325.382488	-325.420486	26.481
C         -0.30830       -1.29630       -0.23830
C         -0.07370       -0.12900       -0.06090
C          0.08840        1.29200        0.08380
C          0.47720        2.11020        1.30170
C          1.74670        1.62910        2.02740
C          2.43830        0.46840        1.43080
N          2.58820        1.79130        0.78650
C          1.32450        2.18400        0.05680
H         -0.48730       -2.33350       -0.37880
H         -0.69910        1.82380       -0.45220
H         -0.19680        2.84290        1.72600
H          2.06270        2.08150        2.96170
H          3.36170        0.16460        1.91730
H          1.90170       -0.32870        0.93740
H          1.42370        2.95870       -0.69340
