13
gdb 2257	3.87018	3.10864	2.05454	3.1289	54.68	-0.2363	-0.0111	0.2253	632.6654	0.100868	-344.4365	-344.430125	-344.429181	-344.466541	23.807
O         -0.01760        1.44580        0.02740
C          0.01550        0.07310        0.07060
C         -0.30100       -0.78680       -1.15110
C         -1.17090       -0.92650        0.05390
C         -0.46710       -1.83840        1.06860
C          0.66440       -0.77010        1.13690
O          1.57080       -0.58470        1.89690
H          0.71240        1.75820       -0.51850
H         -0.71130       -0.19520       -1.96390
H          0.35270       -1.59800       -1.46120
H         -2.22170       -0.67210        0.05780
H         -0.96730       -1.91320        2.03820
H         -0.19500       -2.83910        0.72120
