19
gdb 15789	2.68829	1.63009	1.16127	3.6042	72.44	-0.2468	0.0326	0.2794	1079.5425	0.165	-365.081319	-365.072439	-365.071494	-365.115244	32.085
C          0.21560        1.73270       -0.25820
C         -0.03860        0.23890       -0.03860
N         -1.47370        0.00320        0.13850
C         -1.97950       -0.87360        1.04240
O         -1.32520       -1.54500        1.81510
C          0.54420       -0.60990       -1.15460
C          1.96820       -1.09780       -1.05200
C          0.82310       -2.07060       -0.91550
H          1.28710        1.92310       -0.36180
H         -0.27150        2.08340       -1.17670
H         -0.16610        2.32490        0.57810
H          0.41710       -0.07720        0.90480
H         -2.11860        0.47360       -0.47760
H         -3.08730       -0.90350        1.01140
H          0.19880       -0.33530       -2.14960
H          2.56910       -1.12570       -1.95410
H          2.52690       -0.84500       -0.15630
H          0.59670       -2.45880        0.07110
H          0.64280       -2.76650       -1.72730
