16
gdb 10776	2.82423	2.06346	1.46008	1.6674	60.86	-0.2531	-0.0323	0.2208	882.6342	0.128678	-420.877629	-420.869297	-420.868353	-420.910231	30.317
C          0.10760        1.65310        0.04240
C          0.11510        0.13430        0.00000
C          0.77100       -0.62360       -1.21080
O          1.82300        0.11840       -1.76970
C          1.34050       -1.69490       -0.21290
O          2.66310       -2.10700       -0.43510
C          1.12770       -0.62420        0.86450
O          1.78520       -0.35840        1.83200
H          1.08610        2.04170       -0.24640
H         -0.64110        2.06160       -0.64260
H         -0.12280        2.00480        1.05200
H         -0.88610       -0.28130        0.17250
H          0.07970       -0.99130       -1.97670
H          2.59220       -0.47040       -1.76980
H          0.66520       -2.55260       -0.10700
H          3.18260       -1.79370        0.31770
