15
gdb 19519	3.86467	1.95517	1.82277	1.3761	60.41	-0.2373	0.0158	0.2531	783.0043	0.119651	-399.770707	-399.763892	-399.762948	-399.80184	25.135
C          0.18540        0.96160       -0.30770
O         -0.46440        0.04690        0.56330
C          0.40700       -0.59840        1.41630
C          0.10310       -2.01060        1.80460
O         -0.78440       -2.70740        0.94870
C         -0.16990       -2.73920       -0.26180
N          1.00700       -2.26720       -0.36840
C          1.32800       -1.71170        0.92220
H          0.91190        0.44710       -0.94840
H         -0.59250        1.41360       -0.92670
H          0.69910        1.75420        0.25550
H          0.83440        0.01650        2.21080
H          0.07080       -2.36060        2.82810
H         -0.74990       -3.19690       -1.05280
H          2.36400       -1.75080        1.23650
