15
gdb 2190	3.82889	2.61094	1.79849	1.6311	58.28	-0.2475	0.0213	0.2688	723.7905	0.125617	-341.831947	-341.824619	-341.823675	-341.863249	26.422
C         -0.26810        1.49310       -0.05340
C          0.07270        0.02200        0.01500
O          1.25330       -0.31470       -0.79920
C          1.98390       -0.67560        0.31160
N          3.19360       -0.98470        0.43630
C          0.81650       -0.50150        1.27970
N          0.91450        0.36240        2.43450
H          0.59070        2.11500        0.21500
H         -0.58320        1.76490       -1.06490
H         -1.08330        1.71790        0.64050
H         -0.77140       -0.59700       -0.30310
H          3.68080       -0.95880       -0.46160
H          0.42160       -1.46950        1.59960
H          1.28510       -0.15730        3.22270
H          1.57040        1.11790        2.26250
