18
gdb 17290	3.1004	2.44482	1.86042	1.9178	70.26	-0.2434	0.0662	0.3096	796.008	0.154455	-347.745296	-347.738503	-347.737558	-347.77572	27.562
C         -0.00170        1.53530       -0.03040
C         -0.00380        0.02510       -0.00270
C         -1.34720       -0.73590        0.08380
O         -0.86590       -1.53890        1.19350
C          0.38510       -0.80710        1.23680
C          1.57910       -1.42980        0.48370
C          1.10140       -2.16270       -0.73480
C          1.15260       -0.66220       -0.78110
H          0.99990        1.92980        0.17400
H         -0.30790        1.91190       -1.01400
H         -0.68760        1.94920        0.71610
H         -2.19560       -0.10960        0.38990
H         -1.64270       -1.34700       -0.77710
H          0.59160       -0.37410        2.21930
H          2.56800       -1.57920        0.90030
H          1.88180       -2.65740       -1.30430
H          0.16250       -2.70380       -0.70180
H          1.77610       -0.14010       -1.49810
