15
gdb 20840	5.11612	1.35911	1.14582	3.4017	63.15	-0.2196	0.0209	0.2405	1025.9339	0.120493	-396.03629	-396.028644	-396.0277	-396.06867	27.597
C          0.22110        1.02470       -0.75910
C         -0.22140        0.32850        0.53930
C         -1.53870       -0.36110        0.42430
N         -2.60640       -0.02940        1.08600
N         -3.56780       -0.91940        0.65650
C         -3.12250       -1.82710       -0.27940
O         -3.70780       -2.72580       -0.84230
N         -1.78410       -1.42880       -0.41140
H          1.18690        1.51720       -0.61690
H          0.32950        0.31300       -1.58400
H         -0.50830        1.78080       -1.06300
H          0.54300       -0.39660        0.84730
H         -0.31640        1.05690        1.34870
H         -4.49840       -0.87850        1.03200
H         -1.13800       -1.89000       -1.02770
