11
gdb 23788	3.99207	2.00586	1.33521	5.9256	56.02	-0.2426	-0.058	0.1846	807.3694	0.073035	-434.891029	-434.884628	-434.883684	-434.921642	23.405
N         -0.05020        1.35470       -0.05330
C         -0.01140        0.00450       -0.02110
N         -1.16730       -0.65930       -0.01050
C         -1.03500       -1.97440       -0.00260
F         -2.16460       -2.65110        0.00610
N          0.05980       -2.71390        0.00090
N          1.21810       -2.03880       -0.00590
C          1.20600       -0.72410       -0.01770
H          0.78450        1.90010        0.06500
H         -0.94340        1.80920        0.04100
H          2.17110       -0.22670       -0.02470
