18
gdb 19158	3.88265	1.54792	1.29544	1.5545	67.7	-0.236	0.081	0.3171	991.1215	0.151951	-384.882035	-384.873708	-384.872764	-384.915249	30.487
C          0.29360        1.49710        0.26470
O         -0.03560        0.14690        0.03440
C          0.49600       -0.48240       -1.10260
C          0.19340       -0.01190       -2.49720
C          1.60370        0.10000       -1.94140
C          0.52550       -1.95800       -0.82170
C         -0.55840       -2.85370       -1.23930
O          0.69090       -2.82280       -1.94140
H          1.36780        1.63630        0.44810
H         -0.00960        2.15500       -0.56290
H         -0.25670        1.79780        1.15940
H          0.00500       -0.76460       -3.25370
H         -0.37330        0.90650       -2.60520
H          1.97610        1.09160       -1.71470
H          2.35400       -0.58660       -2.31810
H          1.11000       -2.23150        0.05770
H         -0.75260       -3.76680       -0.67980
H         -1.40580       -2.44270       -1.78430
