13
gdb 905	7.60574	2.0668	1.64202	3.0931	56.09	-0.1973	0.0318	0.229	720.9454	0.103405	-340.672417	-340.665966	-340.665022	-340.70269	23.4
C         -0.05940        1.45610       -0.01670
N         -0.00070        0.01140        0.02980
C         -0.02220       -0.83640       -1.02670
N          0.04690       -2.10160       -0.65400
C          0.11600       -2.06040        0.70730
O          0.19870       -3.19020        1.44370
C          0.08960       -0.77010        1.17360
H          0.83770        1.89850        0.42810
H         -0.12570        1.77470       -1.05880
H         -0.93770        1.82930        0.51980
H         -0.08910       -0.48070       -2.04410
H          0.19440       -3.91970        0.81200
H          0.12410       -0.34790        2.16220
