18
gdb 6435	4.2836	1.38376	1.26896	1.4598	74.13	-0.2506	0.0529	0.3036	1011.1844	0.151747	-347.759915	-347.751373	-347.750429	-347.792307	32.835
C          0.32910        1.25220        0.09100
C         -0.08250       -0.22480       -0.00740
C          0.87240       -1.05340       -0.94250
C          1.62580       -1.57920        0.29780
O          2.83350       -0.85280        0.45690
C          0.45820       -1.08270        1.19450
C         -1.50330       -0.35910       -0.28110
C         -2.67940       -0.47570       -0.50750
H          1.40110        1.32480        0.29100
H          0.10970        1.77590       -0.84450
H         -0.21720        1.75210        0.89700
H          0.34280       -1.84290       -1.47800
H          1.47920       -0.47620       -1.64320
H          1.81650       -2.65970        0.32230
H          3.18960       -1.05760        1.32790
H          0.74110       -0.52370        2.09100
H         -0.23030       -1.88460        1.46940
H         -3.71690       -0.57770       -0.70790
