18
gdb 9694	3.63621	1.57343	1.54096	0.6268	78.21	-0.2425	0.0237	0.2662	933.5231	0.153162	-310.651355	-310.643429	-310.642485	-310.683129	30.96
C         -0.04160        1.53570        0.01000
C         -0.00310       -0.00860        0.00250
C          0.89630       -0.50260       -1.18550
C          2.23600       -0.74350       -0.53830
C          2.15850       -0.75190        0.79050
C          0.75240       -0.51820        1.28060
C         -1.36270       -0.53430       -0.08020
C         -2.48560       -0.95990       -0.14840
H          0.97670        1.93270        0.07190
H         -0.50960        1.91690       -0.90200
H         -0.61270        1.90570        0.86620
H          0.49910       -1.42560       -1.62590
H          0.92840        0.23870       -1.99220
H          3.13640       -0.92050       -1.11620
H          2.98580       -0.93690        1.46690
H          0.69000        0.21280        2.09490
H          0.30740       -1.44640        1.66010
H         -3.47520       -1.34000       -0.20850
