22
gdb 12286	3.7042	1.34933	1.12875	1.0006	78.75	-0.2419	0.0803	0.3222	1161.7528	0.198923	-350.193001	-350.183566	-350.182622	-350.226862	34.717
C         -0.72000        1.76720        0.08270
O         -0.53560        0.52610        0.72270
C         -1.23260       -0.52510        0.10840
C         -0.72190       -1.08640       -1.24710
C         -1.00800       -2.51310       -0.69790
C         -0.06180       -3.64730       -1.06370
C         -1.01240       -1.91900        0.75420
C          0.29610       -2.04410        1.53180
H         -0.15740        2.51390        0.64860
H         -0.34980        1.75690       -0.95370
H         -1.78180        2.06130        0.06370
H         -2.30530       -0.27940        0.04610
H         -1.22730       -0.77810       -2.16580
H          0.35290       -0.90730       -1.35450
H         -2.03140       -2.80230       -0.96230
H          0.97510       -3.40640       -0.80950
H         -0.32640       -4.57460       -0.54300
H         -0.10000       -3.85080       -2.13980
H         -1.83820       -2.26200        1.38550
H          1.15840       -1.70100        0.95310
H          0.25700       -1.43620        2.43970
H          0.47530       -3.08410        1.82360
