17
gdb 16350	2.65315	2.19518	1.38831	4.2409	69.57	-0.2332	-0.0259	0.2073	918.2433	0.141365	-363.843748	-363.835901	-363.834957	-363.87606	29.242
C         -0.50220        1.37470        0.03420
C          0.07510       -0.03180       -0.04940
C          1.41450       -0.21720       -0.83860
C          1.99870       -0.95520        0.38500
O          3.01250       -1.55340        0.59840
C          0.77080       -0.61630        1.20310
C          0.75450       -0.09130        2.59930
N          0.22550       -1.42270        2.29650
H          0.25130        2.09070        0.37970
H         -0.86160        1.70980       -0.94420
H         -1.35010        1.42030        0.72720
H         -0.68480       -0.72920       -0.41990
H          1.37250       -0.80240       -1.76020
H          1.93830        0.72240       -1.04410
H          1.67890       -0.08640        3.17000
H          0.06510        0.71970        2.82080
H         -0.79200       -1.39430        2.25540
