16
gdb 15027	2.35207	1.84852	1.10637	2.3972	71.65	-0.2489	-0.0297	0.2192	1053.5625	0.127805	-346.560184	-346.551648	-346.550704	-346.594017	30.375
O          0.26140        0.01040        0.29400
C          0.16860        1.18080        0.04280
C          1.37310        2.11810       -0.11820
C          1.22880        2.90810       -1.33610
C          1.05430        3.55040       -2.33710
C          1.47290        2.99440        1.13280
C          2.05580        2.41480        2.39600
C          2.82140        3.45670        1.61870
H         -0.81630        1.68620       -0.06460
H          2.26000        1.47670       -0.17830
H          0.92350        4.11800       -3.22520
H          0.64960        3.69370        1.24250
H          1.60830        2.69770        3.34190
H          2.41070        1.39030        2.36160
H          3.69560        3.13610        1.06210
H          2.89810        4.45730        2.02860
