15
gdb 2264	3.7752	2.85273	2.18155	1.987	56.66	-0.2469	0.0838	0.3307	662.1351	0.124287	-345.620113	-345.613398	-345.612454	-345.650387	25.463
C         -0.10700        1.51070        0.05560
C          0.17220        0.04690       -0.02490
O         -0.76140       -0.86490        0.59200
C          0.63240       -0.95930        0.94970
C          1.30020       -1.81540       -0.12550
C          0.77110       -0.77590       -1.19080
O         -0.13890       -1.21480       -2.15900
H          0.79060        2.08980       -0.18400
H         -0.88840        1.79200       -0.65900
H         -0.44500        1.78380        1.05880
H          0.87370       -0.85250        2.00110
H          2.39110       -1.83680       -0.06220
H          0.91490       -2.83320       -0.22440
H          1.58340       -0.26570       -1.71480
H         -0.90190       -1.54610       -1.66690
