19
gdb 2542	3.30271	1.84277	1.29429	2.677	68.16	-0.2452	-0.0189	0.2263	982.2594	0.169173	-310.941183	-310.932124	-310.931179	-310.975338	31.23
C         -0.02560        1.56810        0.09000
C         -0.00270        0.04050       -0.02120
C          0.71510       -0.48290       -1.28330
C          0.86250       -2.01900       -1.25350
C          1.71740       -2.58160       -2.39330
C         -0.07530       -0.07960       -2.51210
O          0.31540        0.62180       -3.40890
H          0.99040        1.97570        0.11960
H         -0.53730        2.02930       -0.76110
H         -0.54100        1.88580        1.00130
H          0.49540       -0.38710        0.85710
H         -1.02940       -0.35070       -0.00580
H          1.70510       -0.01810       -1.36510
H          1.29980       -2.30150       -0.28860
H         -0.13710       -2.47450       -1.27650
H          1.29690       -2.33810       -3.37440
H          2.73250       -2.17190       -2.36280
H          1.79330       -3.67090       -2.32380
H         -1.11030       -0.50510       -2.52830
