12
gdb 5054	3.69287	2.3013	1.58165	4.2649	63.91	-0.2571	-0.0954	0.1618	756.6912	0.085639	-377.546654	-377.540558	-377.539614	-377.576931	22.542
O         -0.07260        0.29240       -0.98560
C         -0.04760        1.25120       -0.25050
C         -1.29580        1.84510        0.30140
C         -1.55040        3.16660        0.22390
C         -0.62090        4.16110       -0.27980
N          0.67020        4.13790       -0.29490
C          1.38590        3.07230        0.22290
N          1.13480        1.81710        0.22430
H         -2.05930        1.14800        0.63530
H         -2.54310        3.53260        0.47430
H         -1.07680        5.07610       -0.66520
H          2.34150        3.38390        0.64750
