19
gdb 17567	3.27816	2.44857	1.93705	1.3165	74.48	-0.2266	0.0948	0.3214	789.6794	0.167706	-327.87719	-327.870695	-327.869751	-327.907204	27.535
C         -0.04410        1.52250        0.02660
C          0.07740        0.02120        0.06600
C          0.90920       -0.82100       -0.95970
C          0.72370       -1.91700        0.14980
C          0.88420       -0.74890        1.15480
C         -0.79680       -2.09100        0.03950
C         -1.70050       -1.49350        1.05530
N         -1.25170       -0.67910       -0.08990
H          0.94150        1.99780        0.04570
H         -0.56840        1.83990       -0.88000
H         -0.61460        1.88930        0.88710
H          0.44450       -0.99830       -1.93280
H          1.94130       -0.48080       -1.07200
H          1.33840       -2.81530        0.19590
H          1.91620       -0.39560        1.19510
H          0.50330       -0.83970        2.17290
H         -1.18240       -2.80550       -0.68380
H         -2.75730       -1.74270        1.00380
H         -1.35310       -1.27970        2.05930
