17
gdb 9074	5.84337	0.89517	0.80757	2.8133	73.54	-0.2652	0.0183	0.2836	1377.613	0.139494	-363.826649	-363.8172	-363.816256	-363.862276	32.457
C         -0.09030        1.54520        0.04700
C         -0.02240        0.00690       -0.00580
C         -1.41940       -0.62960        0.05520
O         -2.00670       -0.26870        1.30430
C         -3.33440       -0.46070        1.42840
N         -3.90150       -0.24840        2.53520
C          0.66990       -0.46680       -1.20210
C          1.21570       -0.85140       -2.20150
H          0.91510        1.97240        0.05830
H         -0.61560        1.93710       -0.82950
H         -0.62090        1.86280        0.94690
H          0.52410       -0.34610        0.87880
H         -2.03410       -0.26650       -0.77910
H         -1.34020       -1.72050       -0.02080
H         -3.81800       -0.79360        0.49910
H         -4.90060       -0.42400        2.45210
H          1.71300       -1.19160       -3.07590
