15
gdb 12425	3.60373	2.07497	1.42564	2.8842	71.1	-0.2142	-0.0244	0.1898	846.275	0.121683	-362.715676	-362.70909	-362.708146	-362.74632	25.63
O          0.03310       -0.09290        0.01350
C         -0.04440        1.11600        0.02220
C         -1.35120        1.90070        0.01400
C         -1.47840        2.75490       -1.21910
C         -0.67870        3.80720       -1.45500
C          0.47230        4.15470       -0.65040
C          1.25120        3.27990        0.02000
N          1.10150        1.90100        0.08280
H         -2.15840        1.17270        0.09020
H         -1.36520        2.53820        0.90900
H         -2.26600        2.50460       -1.92270
H         -0.88570        4.44720       -2.30950
H          0.79120        5.19210       -0.63380
H          2.13630        3.63720        0.53760
H          1.93120        1.35410        0.26620
