14
gdb 2276	7.54469	1.5135	1.36	3.0877	57.21	-0.262	0.0244	0.2864	848.8315	0.113988	-324.566568	-324.559673	-324.558729	-324.59848	23.473
N         -0.09390       -1.09620       -0.31640
C         -0.06750        0.04230       -0.12050
C         -0.00000        1.48260        0.12280
C          1.44190        2.00630        0.12330
C          2.13260        2.07650       -1.25710
O          2.07530        3.51850       -1.25800
C          1.56890        3.54580        0.08950
H         -0.58430        1.99590       -0.65030
H         -0.48310        1.69890        1.08290
H          2.02010        1.50820        0.90310
H          3.16450        1.70580       -1.27620
H          1.58150        1.63790       -2.09770
H          0.63120        4.11090        0.16900
H          2.29630        3.96400        0.79660
