8
gdb 21988	5.74297	1.75406	1.34367	1.2847	44.83	-0.336	-0.1356	0.2004	772.3848	0.035547	-482.546002	-482.540123	-482.539178	-482.577188	19.569
O         -0.12330        0.00950        0.00400
N         -0.02520        1.22230        0.00710
O          0.99090        1.89160        0.00260
C         -1.28550        1.96300        0.01720
N         -1.35800        3.26020        0.02120
O         -2.67090        3.50460        0.03020
N         -3.37020        2.26990        0.03130
N         -2.51350        1.35620        0.02330
