18
gdb 9374	3.56101	1.04691	0.84872	4.3779	69.59	-0.2557	0.0203	0.276	1328.1281	0.153346	-381.118927	-381.1097	-381.108755	-381.153522	32.569
C          0.03560        1.42850       -0.27600
C          0.04690       -0.08190        0.04100
N          0.76770       -0.47620        1.25130
C          2.21890       -0.27370        1.22520
C          2.84250       -1.11020        2.34350
O          2.51010       -2.47230        2.20920
C         -1.33530       -0.58430        0.13480
N         -2.42840       -0.94940        0.21330
H          1.05860        1.79110       -0.40260
H         -0.51820        1.62810       -1.19740
H         -0.43810        1.98800        0.53630
H          0.52140       -0.61040       -0.79600
H          0.35890       -0.01460        2.05900
H          2.58820       -0.64370        0.26140
H          2.52820        0.77960        1.32070
H          3.93380       -1.02790        2.30480
H          2.52000       -0.70720        3.32070
H          1.56860       -2.48180        1.98760
