15
gdb 1237	6.82142	1.0937	0.97883	3.8667	69.	-0.2626	-0.0578	0.2048	1162.9692	0.122415	-308.505951	-308.497379	-308.496434	-308.54241	28.339
C         -0.07390        1.57640       -0.04370
C         -0.01600        0.03510       -0.02840
C         -1.42280       -0.58980        0.06470
C          0.71330       -0.47640       -1.18520
C          1.30080       -0.90840       -2.14930
C          2.02820       -1.38940       -3.29400
O          1.79900       -2.42920       -3.86940
H          0.92880        2.00950       -0.07950
H         -0.63100        1.93240       -0.91550
H         -0.57770        1.93990        0.85690
H          0.55070       -0.27200        0.86240
H         -2.02720       -0.30850       -0.80270
H         -1.36770       -1.68040        0.10140
H         -1.93020       -0.23540        0.96690
H          2.84510       -0.71620       -3.62680
