22
gdb 7694	3.24611	1.98403	1.77959	0.0669	80.88	-0.2879	0.0855	0.3734	893.994	0.202456	-313.068843	-313.06137	-313.060426	-313.09971	31.248
C         -0.06260        1.51790        0.00560
C          0.01850       -0.01630        0.02060
C         -1.41200       -0.56780       -0.08040
C          0.97720       -0.59070       -1.09170
C          2.02270       -1.30350       -0.20860
C          1.13000       -2.02900        0.83650
C          0.78960       -0.56610        1.25570
C          2.27790       -0.25460        0.90960
H          0.91980        1.99310        0.06590
H         -0.53990        1.86880       -0.91630
H         -0.66300        1.88510        0.84640
H         -1.89270       -0.22320       -1.00290
H         -1.44380       -1.66030       -0.08400
H         -2.02480       -0.21900        0.75930
H          0.46170       -1.28340       -1.76480
H          1.42170        0.20080       -1.70370
H          2.84190       -1.81240       -0.71900
H          0.33040       -2.68140        0.47740
H          1.71670       -2.55030        1.59670
H          0.36640       -0.33260        2.23490
H          2.96520       -0.62050        1.67620
H          2.55740        0.76100        0.61930
