10
gdb 3857	3.77715	3.6801	1.86706	3.8743	46.71	-0.2105	-0.022	0.1885	604.2693	0.066349	-392.601894	-392.59556	-392.594616	-392.631856	22.62
N          0.10550        1.42680       -0.11230
C         -0.00120        0.06220       -0.04820
C         -1.07960       -0.78450       -0.11310
O         -2.38830       -0.44190       -0.19700
N         -0.60430       -2.04900       -0.07660
N          0.66060       -2.06880        0.00710
O          1.09510       -0.68270        0.02510
H          0.92710        1.80980        0.33330
H         -0.74320        1.91710        0.13090
H         -2.90420       -1.25620       -0.18810
