13
gdb 21257	7.36943	1.31774	1.12584	1.5576	57.39	-0.229	0.019	0.248	987.1196	0.09533	-435.724761	-435.717545	-435.7166	-435.756504	25.868
C          0.05810        1.42440       -0.05610
O          0.04820       -0.00780        0.01050
C          0.57730       -0.66780       -1.00870
C          0.70210       -2.01190       -1.20570
C          1.34300       -2.06240       -2.46830
O          1.68850       -3.18920       -3.10860
N          1.58730       -0.88220       -2.99340
O          1.08290        0.03130       -2.03170
H          1.08190        1.80400       -0.11480
H         -0.50770        1.77750       -0.92260
H         -0.41590        1.76010        0.86570
H          0.39330       -2.81860       -0.56680
H          2.10630       -2.93210       -3.94200
