19
gdb 6978	2.55483	2.25087	1.65871	1.6604	70.97	-0.2443	0.0266	0.2709	890.3706	0.164994	-365.093193	-365.084859	-365.083914	-365.1257	31.565
C         -0.44360        1.42970        0.00360
C          0.13560        0.02910       -0.07240
O          1.22650        0.01460       -1.03810
C          2.19480       -0.73760       -0.46810
N          2.06490       -1.15100        0.72120
C          0.77610       -0.59980        1.21640
C          1.09760        0.41090        2.32710
C         -0.09310       -1.73380        1.76830
H          0.29960        2.15440        0.34390
H         -0.80110        1.74220       -0.98150
H         -1.29280        1.45180        0.69380
H         -0.62640       -0.65680       -0.46450
H          3.04970       -0.92630       -1.10930
H          1.72750        1.22520        1.95840
H          0.18620        0.84200        2.75340
H          1.64540       -0.09560        3.12610
H          0.39900       -2.21180        2.61960
H         -1.06480       -1.35190        2.10230
H         -0.26660       -2.49740        1.00450
