13
gdb 21663	3.48113	2.37813	1.41358	3.9912	65.25	-0.2045	-0.0243	0.1802	803.3092	0.09856	-394.820475	-394.813899	-394.812955	-394.850879	25.547
N         -0.00730        1.29690        0.10550
C         -0.04000       -0.05520        0.03850
N         -1.18430       -0.69070        0.02040
N         -1.10120       -2.04490       -0.00230
C          0.04070       -2.75090       -0.01360
C          1.25800       -2.12610       -0.01130
C          1.31170       -0.69600        0.00600
O          2.31810        0.01480       -0.01220
H          0.90530        1.69600       -0.06000
H         -0.83710        1.82860       -0.09150
H         -1.99770       -2.50150       -0.00880
H         -0.07860       -3.82870       -0.02820
H          2.17660       -2.69710       -0.02970
