19
gdb 3592	5.08489	1.71064	1.4544	0.1118	72.	-0.2431	0.0911	0.3342	908.9304	0.171735	-273.759338	-273.751744	-273.7508	-273.791146	28.632
C         -0.11920        1.53240       -0.08860
C          0.01050        0.02970        0.03330
C          1.33270       -0.66150       -0.20600
C          0.73560       -0.63820        1.18330
C          1.38200        0.12810        2.29470
C          0.74380        0.16770        3.66270
C          2.01850       -0.61090        3.44730
H          0.79320        2.04780        0.22520
H         -0.31540        1.82240       -1.12690
H         -0.94240        1.91470        0.52530
H         -0.86420       -0.51030       -0.32160
H          1.35190       -1.59610       -0.75630
H          2.19780       -0.02830       -0.38220
H          0.29520       -1.57570        1.51720
H          1.89180        1.03670        1.98820
H          0.79100        1.09030        4.23090
H         -0.17400       -0.39350        3.80590
H          1.95630       -1.69440        3.44550
H          2.93930       -0.22170        3.86780
