16
gdb 15916	3.58738	1.87101	1.51862	1.3202	70.9	-0.2476	0.0293	0.2769	865.9848	0.130068	-346.534445	-346.527215	-346.526271	-346.565952	27.636
C          0.04540       -1.20150       -0.21370
C          0.02340       -0.00500       -0.08620
C         -0.00330        1.42250        0.06110
C         -0.52750        2.29410       -1.13120
C          0.77010        3.15730       -1.08870
C          1.25310        2.36920        0.14320
O          0.78760        2.93280        1.38170
C         -0.33410        2.02790        1.44650
H          0.06710       -2.25750       -0.32310
H         -0.64790        1.72180       -2.05170
H         -1.46300        2.81770       -0.91980
H          1.40580        3.01390       -1.96640
H          0.64660        4.22670       -0.90710
H          2.28970        2.02780        0.19840
H         -1.29520        2.55060        1.52750
H         -0.23110        1.31700        2.27440
