16
gdb 16725	3.83222	1.73827	1.70721	1.5157	68.78	-0.2364	0.0368	0.2731	840.5238	0.130833	-346.551754	-346.544801	-346.543857	-346.58274	27.278
C          0.60770       -0.88810        0.56880
C          0.25290        0.22250        0.27560
C         -0.21070        1.56210       -0.09760
C         -0.93250        2.30580        1.07090
C          0.11410        3.28270        1.57680
C          1.49350        2.73150        1.90200
C          1.19320        3.28940        0.53620
O          0.87710        2.40230       -0.50850
H          0.92880       -1.86810        0.82340
H         -0.87100        1.46300       -0.96640
H         -1.79420        2.85700        0.68240
H         -1.29030        1.60000        1.82380
H         -0.22180        4.19230        2.06010
H          2.11880        3.33310        2.55360
H          1.62350        1.66070        2.01040
H          1.68480        4.18130        0.16670
