15
gdb 19276	3.58525	1.83288	1.39367	3.4733	60.44	-0.2537	-0.0238	0.2298	876.5842	0.11914	-399.76768	-399.760466	-399.759522	-399.799337	26.671
O          0.07640        1.39060        0.14920
C          0.12090        0.01080       -0.15380
C         -1.28250       -0.59070       -0.06870
C         -1.56670       -2.09690       -0.05210
C         -1.07460       -2.75250        1.16860
N         -2.35860       -1.98760        1.26230
C         -1.94470       -0.59610        1.31460
O         -2.11170        0.22030        2.17040
H         -0.36960        1.48730        1.00030
H          0.51780       -0.07740       -1.17050
H          0.81040       -0.53010        0.51310
H         -1.93910       -0.07060       -0.77450
H         -1.98930       -2.65390       -0.87900
H         -1.22960       -3.82100        1.27440
H         -0.20480       -2.37090        1.69600
