14
gdb 20770	3.32265	2.32517	1.37945	2.3238	68.65	-0.2387	-0.0471	0.1915	845.4922	0.107893	-378.707023	-378.700189	-378.699244	-378.73798	25.791
C          0.08400        1.47060        0.05840
C         -0.00960       -0.02480        0.02230
N         -0.11220       -0.55000       -1.15120
O         -0.20340       -1.94600       -1.24490
C         -0.18240       -2.69460       -0.13100
C         -0.07770       -2.20600        1.11430
C          0.02120       -0.77460        1.29970
N          0.12780       -0.10830        2.39450
H          1.01100        1.77110        0.55520
H          0.04780        1.87690       -0.95270
H         -0.73340        1.87780        0.66050
H         -0.26190       -3.74700       -0.38080
H         -0.06790       -2.87920        1.96330
H          0.13710       -0.74220        3.19700
