17
gdb 13546	3.80433	1.34749	1.09365	2.2794	70.9	-0.2477	0.0299	0.2776	1093.9732	0.139848	-363.793246	-363.784135	-363.78319	-363.827356	32.704
C          0.04990        1.54650       -0.24470
C          0.01450        0.06010        0.01760
N          1.29310       -0.67290       -0.01240
C          0.53850       -0.59380        1.24590
C          1.18820        0.18240        2.38360
O          0.21400        0.85060        3.18380
C          2.03850       -0.69690        3.19170
C          2.68220       -1.44950        3.87350
H          0.96170        2.00100        0.14800
H          0.01960        1.74380       -1.32150
H         -0.80970        2.04110        0.21860
H         -0.84400       -0.44500       -0.42530
H          1.18740       -1.58830       -0.43970
H          0.01600       -1.48960        1.58110
H          1.80530        0.97460        1.95020
H         -0.19860        0.19060        3.75150
H          3.27390       -2.09740        4.47220
