20
gdb 13397	5.68958	1.05774	0.94257	0.9959	77.84	-0.2344	0.0295	0.264	1278.9402	0.177497	-349.007053	-348.998595	-348.997651	-349.040576	30.628
C         -0.03040        1.41380        0.01210
O         -0.02580        0.00770        0.00550
C          0.66460       -0.54780        1.10470
C          0.58970       -2.06890        1.01120
C          1.37100       -2.78570        2.14520
C          0.51650       -4.02080        2.53180
C         -0.84780       -3.67520        1.98240
C         -0.80820       -2.62870        1.16040
H          0.99050        1.82650       -0.03070
H         -0.58120        1.74540       -0.87180
H         -0.52350        1.81850        0.91050
H          1.71800       -0.21560        1.10330
H          0.21610       -0.20600        2.05420
H          0.99110       -2.34310        0.02450
H          2.39080       -3.04780        1.85260
H          1.44700       -2.11390        3.00850
H          0.89860       -4.94200        2.06920
H          0.51030       -4.20410        3.61240
H         -1.73470       -4.25430        2.21690
H         -1.64830       -2.21190        0.61770
