16
gdb 14145	4.18115	1.74211	1.485	2.6988	67.91	-0.2165	0.0082	0.2247	871.933	0.130176	-383.717038	-383.709883	-383.708939	-383.748326	27.6
O         -0.18760        1.37810       -0.07130
C          0.00660        0.00120       -0.04290
C         -0.19110       -0.76700        1.25010
C         -1.22060       -0.86340        0.14640
O         -2.42000       -0.12310        0.32760
C         -3.49090       -0.78260       -0.36160
C         -2.87300       -2.02820       -0.93600
C         -1.57770       -2.06200       -0.63420
H         -1.14570        1.51240       -0.03570
H          0.78470       -0.32890       -0.72650
H          0.43330       -1.63140        1.45350
H         -0.48060       -0.18420        2.11830
H         -4.30150       -0.99390        0.35130
H         -3.90080       -0.11710       -1.13660
H         -3.43100       -2.75620       -1.50960
H         -0.85940       -2.82410       -0.90550
