19
gdb 2687	10.57506	0.79378	0.75556	0.1289	77.09	-0.2394	0.0648	0.3042	1545.7379	0.16945	-273.774103	-273.764541	-273.763597	-273.810299	31.904
C         -0.05460        1.56500        0.07310
C         -0.00050        0.03640        0.00650
C          0.71170       -0.48380       -1.24550
C          0.76260       -2.02390       -1.30590
C          1.43900       -2.53280       -2.49440
C          2.00200       -2.92370       -3.48470
C          2.68090       -3.40930       -4.67820
H          0.95230        1.99690        0.07840
H         -0.58650        1.98030       -0.79020
H         -0.56840        1.90750        0.97670
H          0.50650       -0.35190        0.90000
H         -1.02100       -0.36840        0.03790
H          0.20770       -0.10900       -2.14460
H          1.73560       -0.09230       -1.28230
H          1.26430       -2.40350       -0.40500
H         -0.26130       -2.42020       -1.26600
H          2.70560       -4.50450       -4.70540
H          2.17880       -3.06890       -5.59090
H          3.71720       -3.05570       -4.72120
