8
gdb 3946	7.76477	2.37424	1.81826	3.9731	37.46	-0.2814	0.0027	0.2842	594.9344	0.043532	-432.401755	-432.396621	-432.395677	-432.43074	18.291
O         -0.12410        1.29130        0.01040
C          0.06310       -0.01270        0.00260
N          1.18250       -0.64180       -0.00740
O          0.77190       -2.01530       -0.01220
C         -0.57670       -2.08270       -0.00420
O         -1.25940       -3.04750       -0.00580
O         -1.04570       -0.76370        0.00520
H          0.74160        1.72520        0.00760
