18
gdb 8465	2.93002	1.99413	1.51731	3.3756	73.38	-0.2343	-0.0017	0.2326	911.5078	0.152285	-347.812167	-347.803912	-347.802968	-347.844487	30.905
C         -0.00320        1.53490        0.04120
C         -0.02080        0.03490        0.02530
C          1.14080       -0.81810       -0.34610
C          0.59650       -0.95760        1.07530
C          1.44280       -0.75810        2.29950
C         -0.68400       -1.72880        1.01730
O         -1.15640       -2.57450        1.72670
C         -1.29320       -0.82460       -0.08610
H          0.97550        1.91820        0.34780
H         -0.21660        1.93960       -0.95540
H         -0.75530        1.93620        0.72910
H          1.03540       -1.62740       -1.06470
H          2.10710       -0.32210       -0.38220
H          2.12430        0.08990        2.17650
H          0.82210       -0.57400        3.18200
H          2.05240       -1.64510        2.50350
H         -2.19860       -0.33840        0.29090
H         -1.50650       -1.27180       -1.06200
