16
gdb 19408	3.05625	2.18991	1.61422	2.7089	64.07	-0.2462	0.0607	0.307	825.3438	0.130134	-383.678659	-383.671595	-383.670651	-383.70968	27.453
O          0.24300        1.39000       -0.17460
C          0.00990        0.01600       -0.00130
C          0.30710       -0.66320        1.34450
C         -0.70070       -0.26680        2.39050
C         -1.09900       -1.28530        1.35790
C         -1.43150       -0.54440        0.07910
C         -2.69160        0.00740       -0.41850
O         -2.06410       -1.13140       -1.03740
H         -0.09460        1.85130        0.60060
H          0.53140       -0.48680       -0.82110
H          1.25020       -1.12150        1.61360
H         -0.50490       -0.65120        3.38610
H         -1.16650        0.71730        2.39010
H         -1.39600       -2.29770        1.59680
H         -3.62220       -0.20280        0.10710
H         -2.67960        0.91950       -1.01340
