14
gdb 13581	4.53165	1.35081	1.22418	3.2323	68.24	-0.2497	-0.0668	0.1829	983.43	0.105099	-382.502354	-382.494651	-382.493707	-382.534504	28.606
O          0.07450        1.31150       -0.20670
C          0.00030       -0.04690       -0.01450
C         -0.38000       -0.65720        1.27850
C         -1.38420       -0.76010        0.12100
C         -2.55010        0.13440        0.14730
O         -2.51220        1.25700        0.64420
C         -3.75680       -0.35870       -0.48460
C         -4.75650       -0.78470       -1.00220
H         -0.69490        1.70950        0.23770
H          0.71350       -0.56920       -0.64370
H          0.08650       -1.58470        1.59130
H         -0.66670        0.01800        2.07830
H         -1.51580       -1.71980       -0.36270
H         -5.64690       -1.14430       -1.45850
