19
gdb 13429	3.76741	1.29953	1.14413	1.4723	77.44	-0.2171	0.0535	0.2707	1114.1976	0.162806	-327.858995	-327.84959	-327.848646	-327.893215	33.951
C          0.02080        1.57100        0.69610
C          0.06740        0.10140        0.33120
C          0.23720       -0.40460       -1.06820
C          0.37470        0.52890       -2.26830
C          1.11030       -0.08690       -3.36960
C          1.71290       -0.61250       -4.26700
N          1.28880       -0.60120       -0.07390
C          2.55970        0.09930       -0.17770
H          0.58550        2.21310        0.01790
H         -1.01710        1.92100        0.69520
H          0.41780        1.72680        1.70530
H         -0.55520       -0.50530        0.99010
H         -0.26950       -1.33120       -1.33750
H         -0.63350        0.79670       -2.61190
H          0.85770        1.47100       -1.99380
H          2.24690       -1.07040       -5.06210
H          2.50900        1.14760       -0.50540
H          3.04790        0.08170        0.80210
H          3.19770       -0.43970       -0.88420
