19
gdb 2921	5.53463	1.71623	1.46982	0.2141	73.74	-0.2239	0.0351	0.259	906.8307	0.172856	-273.809498	-273.80199	-273.801046	-273.841287	27.74
C         -0.06120        1.57880        0.28330
C         -0.05120        0.10700       -0.16730
C         -1.39840       -0.55170       -0.09970
C         -2.11800       -1.01130       -1.12620
C         -3.40830       -1.66520       -0.69640
C         -3.53050       -1.24300        0.79090
C         -2.09970       -0.83320        1.21800
H          0.94070        2.01360        0.21410
H         -0.73380        2.17260       -0.34360
H         -0.39610        1.67970        1.32040
H          0.33200        0.04480       -1.19220
H          0.65750       -0.44850        0.46370
H         -1.80190       -0.96950       -2.16400
H         -4.27190       -1.34810       -1.29270
H         -3.34720       -2.75780       -0.80780
H         -4.19320       -0.37490        0.86690
H         -3.95480       -2.02720        1.42310
H         -1.58150       -1.64460        1.75090
H         -2.09860        0.02420        1.90060
