11
gdb 3864	6.09697	2.87068	1.95414	3.7364	55.37	-0.231	-0.0631	0.1679	599.7868	0.081	-335.62848	-335.623001	-335.622057	-335.657504	20.488
N         -0.01040        1.36730        0.16310
C         -0.02010        0.00060        0.05660
C         -1.21560       -0.75050        0.03610
N         -1.18120       -2.06460       -0.01210
C          0.04880       -2.60620       -0.03370
N          1.19730       -1.94330       -0.02400
N          1.16680       -0.61490        0.01470
H          0.88010        1.79840       -0.03790
H         -0.81660        1.87200       -0.16780
H         -2.18920       -0.26260        0.05830
H          0.11960       -3.68800       -0.06710
