12
gdb 3795	7.80865	2.00613	1.62704	4.7042	52.4	-0.2361	-0.0324	0.2037	717.2979	0.091011	-356.645883	-356.639597	-356.638653	-356.676371	21.898
C          0.02920        1.42580        0.13470
N         -0.04530        0.01780       -0.22030
C         -1.22360       -0.66740       -0.07660
N         -1.28180       -1.97190        0.06450
O         -2.62770       -2.27440        0.10590
N         -3.39150       -1.15820        0.00670
C         -2.56160       -0.16000       -0.10520
H          1.03840        1.78510       -0.07540
H         -0.65990        2.00750       -0.48540
H         -0.20080        1.62690        1.19120
H          0.76520       -0.53420        0.01890
H         -2.91980        0.85230       -0.20030
