11
gdb 21846	8.0692	1.23685	1.08429	3.973	54.21	-0.2849	-0.0354	0.2495	977.7012	0.072034	-434.542025	-434.535577	-434.534633	-434.573398	22.339
O         -0.02690       -0.01440        0.10540
C         -0.01160        1.15960       -0.06750
O          1.09030        1.91000        0.29210
C          1.01190        3.25980        0.19560
N         -0.11580        3.91320        0.34400
O          0.23020        5.25040        0.18810
C          1.55090        5.34070       -0.02970
C          2.12350        4.11210       -0.04070
H         -0.80380        1.77360       -0.51880
H          1.93630        6.34020       -0.15870
H          3.15290        3.83770       -0.19140
