13
gdb 21821	6.06971	1.43848	1.16288	4.1651	62.91	-0.2228	-0.0102	0.2126	940.3557	0.097937	-394.819343	-394.812466	-394.811521	-394.850957	24.717
O         -0.35290        0.08590        0.00490
C         -0.10020        1.26660        0.00890
N          1.16150        1.80990       -0.00040
C          2.35070        1.08360       -0.01630
C          2.61360       -0.27200       -0.03020
C          4.02440       -0.34150       -0.04230
N          4.59920        0.85470       -0.03630
N          3.55390        1.71700       -0.02050
H         -0.87140        2.06000        0.02100
H          1.22270        2.81660        0.00360
H          1.88640       -1.06250       -0.03090
H          4.64220       -1.22750       -0.05510
H          3.73960        2.70540       -0.01320
