14
gdb 15100	8.54957	0.75749	0.71691	5.5442	75.94	-0.2649	-0.0427	0.2222	1480.4049	0.107646	-341.541637	-341.533824	-341.53288	-341.574756	27.286
N          0.06260       -3.63530        0.32920
C          0.04570       -2.48250        0.18680
C          0.02310       -1.12780        0.01880
C         -0.00260        0.07080       -0.12940
C         -0.01540        1.51520       -0.31370
C          1.37360        2.13800       -0.24750
C          1.52700        3.52250        0.26070
N          2.02600        2.37680        1.04220
H         -0.47580        1.74530       -1.28410
H         -0.66170        1.97050        0.44900
H          2.05260        1.78270       -1.01890
H          2.29620        4.17180       -0.14640
H          0.63270        4.03970        0.60070
H          1.39040        2.16690        1.80850
