15
gdb 3472	4.1359	2.97614	2.68588	1.8394	55.77	-0.2455	0.0658	0.3113	593.2917	0.126874	-345.629933	-345.624108	-345.623164	-345.659224	22.959
O          0.00310        1.50060       -0.06620
C          0.01970        0.10190        0.01580
C          0.06940       -0.63300        1.38730
C         -1.00170        0.09110        2.22340
C         -2.13050        0.10080        1.14360
C         -1.34550       -0.61270        0.02580
O         -0.68610       -1.70330        0.74280
H          0.90870        1.81780       -0.12960
H          0.70000       -0.36730       -0.70210
H          0.99100       -0.96570        1.86560
H         -1.26600       -0.48030        3.11520
H         -0.68750        1.09510        2.51730
H         -3.00800       -0.47780        1.43850
H         -2.44060        1.10750        0.85680
H         -1.86590       -0.92250       -0.88000
