13
gdb 5670	5.33483	2.22277	1.56903	1.3674	64.62	-0.1916	0.0307	0.2223	743.9537	0.098838	-361.49514	-361.489405	-361.48846	-361.524647	22.95
N         -0.04610        1.31850        0.01000
C          1.25250        1.83430        0.00040
C          2.16320        0.80300       -0.01450
C          1.40690       -0.41390       -0.01390
C          0.08510       -0.03250        0.00110
O         -0.79090       -1.04990        0.00400
C          0.02610       -2.17930       -0.01020
C          1.34670       -1.85490       -0.02150
H         -0.89620        1.85230        0.02130
H          1.40350        2.90140        0.00500
H          3.23520        0.92260       -0.02430
H         -0.50760       -3.11420       -0.01020
H          2.15960       -2.56440       -0.03340
