17
gdb 10132	3.30004	1.28598	0.9416	0.4647	75.88	-0.249	-0.0217	0.2273	1240.9585	0.138957	-363.832996	-363.823502	-363.822557	-363.867496	32.954
C          0.04690        1.49470       -0.09030
C          0.05060       -0.01850        0.01960
O          0.62520       -0.53290       -1.19180
C          0.71970       -1.87610       -1.28930
N          0.32350       -2.64860       -0.36430
C          0.43780       -4.08480       -0.49740
C          1.31090       -2.25900       -2.54620
C          1.80110       -2.61410       -3.58510
H          1.06340        1.88020       -0.20870
H         -0.54660        1.82240       -0.94850
H         -0.38500        1.93100        0.81540
H          0.64060       -0.36820        0.87360
H         -0.95920       -0.42540        0.13910
H          0.88460       -4.42060       -1.44190
H          1.03910       -4.47500        0.33210
H         -0.55770       -4.53400       -0.40220
H          2.23520       -2.91760       -4.50620
