15
gdb 9561	4.26867	1.31883	1.24274	3.7984	73.56	-0.2646	0.0058	0.2705	1002.1336	0.117116	-325.500341	-325.492093	-325.491149	-325.532714	30.292
C         -0.05710        1.54080       -0.07810
C          0.01520        0.02460       -0.02080
C          1.33940       -0.67730       -0.23940
C          0.74190       -0.67430        1.15030
C          1.31890        0.10560        2.20360
C          1.80240        0.74960        3.09690
C         -1.16350       -0.65710       -0.49700
N         -2.11340       -1.19730       -0.87720
H          0.84920        1.97700        0.34640
H         -0.16040        1.87900       -1.11290
H         -0.91310        1.91130        0.49260
H          1.34190       -1.61570       -0.78050
H          2.19650       -0.03770       -0.41430
H          0.28980       -1.60890        1.46750
H          2.22920        1.31430        3.88850
