13
gdb 2505	3.35505	2.17105	1.39065	4.366	58.34	-0.3386	-0.0102	0.3284	833.2195	0.101328	-303.525517	-303.51799	-303.517045	-303.55734	25.66
C         -0.04910        1.55010        0.04010
C         -0.00710        0.02300        0.00640
C          0.74760       -0.52590       -1.24040
C          2.15150       -0.08920       -1.26050
N          3.24220        0.28920       -1.26090
C          0.66050       -1.99100       -1.30900
N          0.55100       -3.13950       -1.34780
H          0.95730        1.97700        0.07630
H         -0.55910        1.95460       -0.84060
H         -0.59160        1.89030        0.92590
H          0.47730       -0.37420        0.90300
H         -1.01840       -0.39310       -0.02490
H          0.26770       -0.12430       -2.14310
