20
gdb 8061	3.11317	1.77531	1.41653	1.2681	75.88	-0.2618	0.0733	0.3352	968.1866	0.177309	-348.95224	-348.944127	-348.943183	-348.984593	31.231
C          0.18930        1.36390        0.17490
C          0.11140       -0.13680        0.08780
C          0.60930       -1.05360       -1.07540
C         -0.00160       -2.02040       -0.02170
C          0.75230       -1.18670        1.05280
C         -1.18950       -1.01620        0.08010
C         -2.14910       -1.01880        1.25320
O         -2.82570        0.23630        1.24000
H          1.23030        1.70630        0.18200
H         -0.31400        1.83000       -0.67920
H         -0.30150        1.72640        1.08310
H          0.08040       -0.96530       -2.02930
H          1.69190       -1.11240       -1.22010
H         -0.06410       -3.10760       -0.08920
H          1.84440       -1.25040        1.03060
H          0.38980       -1.22350        2.08170
H         -1.77150       -0.91590       -0.84400
H         -2.86160       -1.85130        1.13260
H         -1.63260       -1.17330        2.21050
H         -3.47350        0.23520        1.95070
