18
gdb 13606	4.12189	1.39093	1.1708	3.3255	70.34	-0.2412	0.0502	0.2914	1077.3048	0.153136	-381.135158	-381.126102	-381.125158	-381.169196	31.779
C         -0.12840        1.28210       -0.15920
N          0.12440       -0.14330       -0.08480
C          0.76670       -0.80440       -1.10120
O          1.01950       -0.30920       -2.18320
N          1.16180       -2.10520       -0.74460
C          0.24930       -3.14100       -0.27600
C          0.94400       -3.25690       -1.60050
C          0.16880       -3.15290       -2.89290
H          0.62710        1.86960        0.37890
H         -0.09990        1.56580       -1.21160
H         -1.11440        1.51860        0.25280
H          0.13590       -0.57920        0.82280
H          0.58250       -3.71820        0.58320
H         -0.81660       -2.92130       -0.29700
H          1.81030       -3.91550       -1.64620
H         -0.73740       -2.55350       -2.77230
H          0.77400       -2.68050       -3.67010
H         -0.12060       -4.15370       -3.23030
