13
gdb 21792	6.0393	1.25132	1.11473	3.1823	60.63	-0.2604	-0.0478	0.2125	997.7768	0.096247	-394.785184	-394.778097	-394.777152	-394.818594	24.112
O         -0.54680        1.09250        0.93770
C          0.07000        1.04760       -0.09270
C          1.45180        1.66800       -0.28580
C          1.39640        2.77590       -1.28830
C          1.88020        2.92340       -2.56830
N          1.51400        4.14450       -3.04820
N          0.82260        4.76840       -2.13950
N          0.74290        3.94840       -1.07440
H         -0.34510        0.56410       -1.00400
H          1.81210        2.01210        0.68850
H          2.13420        0.89540       -0.65700
H          2.46670        2.23460       -3.15500
H          0.24110        4.25070       -0.25320
