10
gdb 42	14.79671	5.6956	4.58846	0.0075	31.42	-0.2594	0.0584	0.3179	297.8398	0.085172	-230.183076	-230.177723	-230.176779	-230.211195	16.837
O         -0.01420        1.42640       -0.05420
C         -0.00390        0.00720        0.03500
C         -1.42320       -0.55560       -0.01260
O         -2.11230       -0.10560       -1.17230
H         -0.18990        1.64150       -0.97560
H          0.59660       -0.43320       -0.77410
H          0.47310       -0.24900        0.98750
H         -1.39490       -1.64980       -0.06280
H         -1.96500       -0.27220        0.90130
H         -2.35930        0.80940       -1.00610
