16
gdb 20886	6.9096	1.09944	1.02438	5.964	65.91	-0.2796	-0.0123	0.2673	1152.3543	0.131746	-376.09151	-376.083867	-376.082923	-376.124685	26.534
C         -0.00300        1.56340        0.05090
C         -0.01700        0.04000        0.19370
C         -1.39420       -0.54830       -0.12930
N         -1.42100       -2.00100       -0.02210
C         -1.84040       -2.80650        0.96940
N         -1.61950       -4.05880        0.63320
N         -1.04630       -4.00610       -0.59800
N         -0.92010       -2.78470       -1.00070
H          0.98690        1.96540        0.28250
H         -0.25620        1.86970       -0.96970
H         -0.72130        2.03670        0.72930
H          0.71860       -0.41430       -0.47810
H          0.26440       -0.24890        1.21310
H         -2.15790       -0.15720        0.54980
H         -1.69250       -0.29530       -1.15020
H         -2.29100       -2.45680        1.88400
