13
gdb 23654	4.12903	1.8013	1.26394	2.4483	61.76	-0.2668	-0.0367	0.23	883.5096	0.096399	-402.816226	-402.809601	-402.808657	-402.847557	23.936
C          0.00270        1.50290       -0.00500
C          0.01900        0.00150        0.03260
N          0.15880       -0.63370       -1.14630
C          0.17280       -1.95930       -1.10860
N          0.06330       -2.74210       -0.02780
C         -0.07170       -2.09480        1.10680
F         -0.18330       -2.83210        2.20140
C         -0.10350       -0.71030        1.22150
H          0.93160        1.87520       -0.44800
H         -0.81530        1.85150       -0.64300
H         -0.11430        1.93460        0.99130
H          0.28550       -2.47450       -2.05920
H         -0.21710       -0.22890        2.18410
