16
gdb 371	6.4208	2.16929	1.73642	0.7089	62.36	-0.2575	0.0581	0.3157	736.4751	0.14095	-234.474088	-234.466434	-234.46549	-234.505226	27.469
C         -0.08330        1.54820        0.06270
C          0.00940        0.02130       -0.00050
C          0.76260       -0.51570       -1.24310
C          2.24610       -0.09500       -1.27530
C          0.64160       -1.97140       -1.31800
C          0.54980       -3.16980       -1.35740
H          0.89950        2.01780        0.16550
H         -0.55490        1.95480       -0.83930
H         -0.68620        1.86130        0.92050
H          0.50210       -0.36490        0.90010
H         -0.99950       -0.40520       -0.00430
H          0.27340       -0.09340       -2.13330
H          2.74540       -0.50830       -2.15530
H          2.34270        0.99340       -1.30840
H          2.76910       -0.46230       -0.38660
H          0.46350       -4.22690       -1.40340
