14
gdb 21794	6.12344	1.17123	1.05928	1.7358	64.11	-0.2403	-0.0222	0.2181	1056.0737	0.10843	-378.748885	-378.741668	-378.740724	-378.782135	25.131
O          0.17350       -0.20860       -0.17730
C          0.07470        0.99030       -0.17570
C          1.23980        1.95470       -0.00730
C          1.29940        2.93230       -1.14600
C          1.66560        2.68170       -2.45730
N          1.53660        3.85340       -3.12190
N          1.10690        4.86340       -2.34400
C          0.95930        4.30560       -1.14660
H         -0.90870        1.49260       -0.32150
H          1.08540        2.50200        0.93180
H          2.15650        1.36660        0.09290
H          2.00340        1.78140       -2.94670
H          1.72760        4.03430       -4.09300
H          0.61990        4.90500       -0.31350
