15
gdb 20446	6.18591	1.379	1.22372	3.5719	67.35	-0.2253	0.025	0.2502	964.745	0.122371	-358.831101	-358.824437	-358.823493	-358.862575	24.854
C          0.15040        1.57570        0.03270
N          1.26450        0.62800       -0.09100
C         -0.10920        0.10460        0.02510
C         -0.42830       -0.65350        1.25220
C         -1.53650       -1.44040        1.50090
N         -1.39620       -1.91400        2.76390
N         -0.26650       -1.49640        3.36430
C          0.32300       -0.73160        2.45050
H          0.11320        2.11320        0.97600
H         -0.15230        2.15450       -0.83670
H          1.58090        0.57590       -1.05500
H         -0.57350       -0.27980       -0.88140
H         -2.39010       -1.69130        0.89080
H         -2.01760       -2.52550        3.26470
H          1.27410       -0.26620        2.65830
