17
gdb 16434	3.34169	2.2599	1.70268	1.7815	68.4	-0.2406	0.0699	0.3106	815.3242	0.141881	-363.768899	-363.761791	-363.760847	-363.799683	28.026
C         -0.12980        1.58430       -0.04390
C         -0.01900        0.07620        0.05630
N          1.18150       -0.56440       -0.64570
C          2.09920       -0.27860        0.56940
C          2.56990       -1.73570        0.61640
C          1.07390       -1.79350        0.29530
C          0.70500       -0.60800        1.21980
O          0.36340       -0.73990        2.55460
H          0.78590        2.08680        0.28360
H         -0.32590        1.88500       -1.07800
H         -0.95740        1.95190        0.57270
H         -0.95370       -0.40820       -0.25410
H          2.68420        0.64020        0.62300
H          3.24770       -2.04900       -0.18140
H          2.87620       -2.12160        1.59050
H          0.43840       -2.63660        0.01970
H          0.33900        0.13600        2.95570
