11
gdb 21496	5.40626	1.62746	1.2509	2.8216	54.55	-0.2819	-0.0754	0.2065	860.0396	0.072198	-430.726572	-430.719736	-430.718792	-430.758	24.135
N         -0.09360        1.33060       -0.00520
C          0.05840       -0.01750       -0.01010
O          1.12440       -0.60000       -0.02210
C         -1.22010       -0.78510        0.00140
C         -1.43800       -2.12780        0.00070
N         -2.79960       -2.30570        0.01420
N         -3.40100       -1.20470        0.02310
O         -2.39880       -0.16320        0.01500
H          0.73250        1.90560       -0.01100
H         -1.00240        1.76150        0.00660
H         -0.73920       -2.94500       -0.00840
