19
gdb 19283	3.24024	1.75422	1.38443	1.3861	70.86	-0.2253	0.0789	0.3042	953.3225	0.165757	-365.00949	-365.001308	-365.000364	-365.041814	30.956
C         -0.35740        1.55760        0.14080
C         -0.09060        0.05880        0.11100
C          0.40350       -0.56120       -1.20620
N          1.72970        0.04220       -1.48970
C          1.62190       -1.10690       -0.55290
C          1.21000       -0.53070        0.80630
C          2.18700        0.39990        1.49780
O          1.57290        0.85530        2.70060
H          0.44680        2.10330       -0.35970
H         -1.29570        1.79430       -0.37340
H         -0.42900        1.91440        1.17190
H         -0.96260       -0.48810        0.48110
H         -0.19300       -0.97380       -2.01140
H          2.04250       -0.33380       -2.38410
H          2.16300       -2.02590       -0.74520
H          0.92810       -1.32500        1.50360
H          3.11860       -0.14980        1.71520
H          2.44390        1.23430        0.83370
H          2.13100        1.54040        3.07950
