17
gdb 18581	3.7319	2.07779	1.66173	1.5418	67.13	-0.2429	0.0186	0.2616	821.0848	0.144264	-363.870432	-363.863697	-363.862753	-363.901392	26.058
C          0.11520        1.58440       -0.02740
C          0.04380        0.06690        0.03640
C          0.91830       -0.76330       -0.96190
C          1.41760       -1.64090        0.20950
O          2.83240       -1.52580        0.48390
C          2.92210       -0.50940        1.38010
N          1.87320        0.03620        1.84120
C          0.74100       -0.67200        1.22350
H          1.14520        1.93390        0.08640
H         -0.26960        1.94840       -0.98640
H         -0.47800        2.04320        0.77020
H         -1.00080       -0.25760       -0.02090
H          0.38150       -1.28500       -1.75750
H          1.73400       -0.18980       -1.41040
H          1.15810       -2.69910        0.19250
H          3.93810       -0.24140        1.64920
H          0.08030       -1.06350        2.00170
