17
gdb 18192	4.21177	1.7309	1.41814	1.7662	73.12	-0.2336	0.0447	0.2783	900.5973	0.143344	-326.67385	-326.66677	-326.665826	-326.704933	27.916
C         -0.46700       -1.13420       -0.78050
C         -0.22510       -0.03470       -0.35990
C          0.05660        1.28950        0.17930
C         -0.34720        1.45240        1.67600
C          0.63250        2.52110        2.19710
C          1.85230        2.36670        1.30170
C          2.35910        0.99630        1.03650
N          1.49130        1.66290        0.05280
H         -0.67770       -2.10100       -1.16580
H         -0.48840        2.03300       -0.41590
H         -1.39480        1.74210        1.77940
H         -0.22220        0.50520        2.20540
H          0.21690        3.52720        2.07110
H          0.86260        2.39530        3.25950
H          2.51940        3.21710        1.19210
H          3.38180        0.85330        0.70110
H          1.95920        0.16640        1.61300
