13
gdb 20313	6.22982	1.37928	1.13711	4.6764	64.19	-0.2535	0.0029	0.2564	966.6649	0.096323	-357.60737	-357.600307	-357.599363	-357.640428	25.191
C         -0.22160       -0.92090       -0.93070
C         -0.07640        0.04100       -0.22530
C          0.13440        1.21680        0.61400
C          1.43040        1.92520        0.32400
C          2.03090        3.04560        0.85330
N          3.21750        3.25320        0.21800
N          3.39030        2.32380       -0.67830
N          2.31270        1.51970       -0.61730
H         -0.37450       -1.77640       -1.54180
H         -0.70150        1.91520        0.48000
H          0.10900        0.92010        1.67040
H          1.68520        3.70010        1.63720
H          2.23060        0.72190       -1.22960
