17
gdb 15897	2.61918	2.07603	1.29041	1.8103	66.34	-0.2534	0.0171	0.2705	967.419	0.141031	-400.989054	-400.980619	-400.979675	-401.022167	29.973
C         -0.11150        1.43140        0.28980
O         -0.13530        0.16120       -0.34540
C         -1.33830       -0.52040       -0.16360
C         -1.34210       -1.96590       -0.72150
C         -0.04500       -2.51370       -1.26860
O         -1.63610       -2.47200        0.63290
C         -1.56760       -1.21100        1.17850
N         -1.65170       -0.82170        2.36830
H          0.86540        1.87030        0.07710
H         -0.89690        2.08890       -0.11310
H         -0.24890        1.33920        1.37310
H         -2.19820        0.08770       -0.48230
H         -2.18940       -2.19030       -1.37560
H          0.79090       -2.26160       -0.61360
H         -0.11000       -3.60080       -1.36870
H          0.15270       -2.08500       -2.25580
H         -1.78100       -1.60660        3.01030
