15
gdb 5153	5.34585	1.30412	1.24495	1.6363	72.64	-0.2053	0.0273	0.2326	995.5139	0.119384	-325.517427	-325.51007	-325.509126	-325.550064	27.317
C         -0.03070       -1.22600       -0.00550
C         -0.00410       -0.02550        0.00170
C          0.01990        1.43810        0.01030
N          1.35700        2.00760        0.00040
C          2.12160        2.26140        1.11440
C          3.35110        2.71120        0.69610
C          3.33580        2.72240       -0.72690
C          2.09750        2.27900       -1.12570
H         -0.04710       -2.28800       -0.01190
H         -0.52300        1.82330       -0.86000
H         -0.50570        1.81270        0.89570
H          1.72000        2.09750        2.10200
H          4.16500        3.01110        1.33820
H          4.13570        3.03250       -1.38150
H          1.67470        2.13070       -2.10690
