15
gdb 2244	4.93672	2.67559	2.14919	2.4278	56.55	-0.2523	0.0931	0.3454	649.9548	0.125231	-345.641862	-345.635507	-345.634563	-345.671779	23.819
C         -0.00270        1.50180       -0.00850
C         -0.03860        0.00270        0.07840
C         -1.27150       -0.78110       -0.33940
O         -1.09460       -2.10050        0.16040
C         -0.19370       -2.07860        1.26290
C          0.63730       -0.82990        1.08000
O          1.16810       -0.70900       -0.24540
H          0.94120        1.88460        0.38640
H         -0.09300        1.83170       -1.04920
H         -0.82800        1.94590        0.55750
H         -2.17100       -0.30320        0.08340
H         -1.39190       -0.84770       -1.42620
H         -0.72630       -2.03070        2.22760
H          0.39150       -3.00360        1.23380
H          1.24510       -0.43160        1.88840
