15
gdb 14258	3.86753	1.78951	1.63377	4.2102	61.05	-0.2419	0.0278	0.2697	820.0654	0.119806	-399.798156	-399.791185	-399.79024	-399.829434	26.406
O         -0.09610        1.43870       -0.05900
C         -0.01170        0.03840        0.04210
C          0.27050       -0.60260        1.43870
C         -1.09990       -1.35040        1.36340
C         -1.40650       -0.63670        0.00270
N         -2.46520        0.09570        0.69310
C         -2.21580       -0.45650        1.94100
O         -2.67140       -0.23610        3.02930
H          0.78290        1.81000        0.06650
H          0.64820       -0.38400       -0.72900
H          1.13840       -1.26490        1.44960
H          0.35130        0.10470        2.26710
H         -1.13090       -2.42480        1.52560
H         -1.71660       -1.13900       -0.91390
H         -2.80470        1.02660        0.49080
