17
gdb 2394	5.1557	1.98031	1.76171	1.9371	64.33	-0.2394	0.0717	0.3111	779.4214	0.148148	-309.681554	-309.674444	-309.6735	-309.712606	26.22
C         -0.02700        1.53320       -0.07260
C          0.02950        0.02310       -0.00930
C          1.34680       -0.70590       -0.17520
C          0.66140       -0.67550        1.15720
C          1.15220       -0.09370        2.48010
O          0.59890       -1.21640        3.20190
C          0.12420       -1.83720        1.98670
H          0.87100        1.98150        0.36610
H         -0.09690        1.88260       -1.10830
H         -0.89290        1.92620        0.47180
H         -0.83810       -0.47980       -0.43240
H          1.36060       -1.64210       -0.72510
H          2.24470       -0.10570       -0.29570
H          2.24180       -0.02590        2.60070
H          0.69870        0.85700        2.79170
H         -0.96680       -1.96550        1.98970
H          0.59920       -2.81240        1.81200
