12
gdb 3949	7.82435	1.93953	1.57904	5.8627	51.83	-0.2502	0.0003	0.2505	719.9692	0.091607	-356.680129	-356.673745	-356.672801	-356.711319	21.885
O          0.02870        1.39920        0.26010
C          0.03060        0.01500       -0.02980
C         -1.38680       -0.45550        0.00410
C         -2.58640        0.21240       -0.06650
N         -3.60210       -0.69620       -0.01160
N         -3.10440       -1.89200        0.08690
N         -1.75940       -1.75520        0.09980
H          0.90470        1.74720        0.07030
H          0.46520       -0.18510       -1.02320
H          0.63080       -0.55390        0.70080
H         -2.76390        1.27130       -0.14260
H         -1.18460       -2.57880        0.18130
