16
gdb 10837	4.7585	1.54249	1.223	3.9208	61.54	-0.253	0.0081	0.2611	963.838	0.130676	-420.911743	-420.904221	-420.903277	-420.943704	27.488
C         -0.20700        1.48700        0.03300
C          0.04130       -0.01190       -0.00980
C          0.85490       -0.43100       -1.22330
O          1.19210       -1.83010       -1.20630
C          1.31840       -2.49460       -0.03780
O          1.66820       -3.64240       -0.03050
C          0.93790       -1.76800        1.25020
O          0.77770       -0.37050        1.15160
H          0.74160        2.03180        0.04920
H         -0.78410        1.81060       -0.83800
H         -0.76520        1.74560        0.93580
H         -0.92130       -0.55250       -0.01720
H          0.30420       -0.27040       -2.15430
H          1.78580        0.14750       -1.25900
H          0.01490       -2.25080        1.61300
H          1.72110       -1.96370        1.98560
