14
gdb 12294	3.05422	2.28117	1.36977	5.4299	65.36	-0.2353	-0.0862	0.1491	854.1307	0.107848	-382.582994	-382.576153	-382.575209	-382.614381	25.255
O          0.00370       -0.01060       -0.24290
C         -0.03110        1.17830       -0.05800
C         -1.31230        1.98390        0.05320
C         -1.27470        2.99890        1.20940
C          0.03260        3.73070        1.29620
C          1.17930        3.29220        0.75590
C          1.28180        2.00090        0.05310
O          2.31860        1.56650       -0.39690
H         -1.41110        2.53920       -0.89080
H         -2.16090        1.30000        0.12630
H         -2.09540        3.71750        1.10710
H         -1.45460        2.48700        2.16600
H          0.03030        4.66810        1.84850
H          2.10530        3.85140        0.85000
