18
gdb 17410	4.22721	1.62397	1.57278	2.0674	72.63	-0.2225	0.0794	0.3019	903.6532	0.154337	-343.89858	-343.891308	-343.890364	-343.929788	28.514
C         -0.20220        1.40400       -0.01380
N          0.03230       -0.03060        0.05450
C          1.40810       -0.49570       -0.14050
C          0.75860       -0.54400        1.19270
C          1.26670        0.17450        2.47880
C          0.86850       -1.09390        3.24870
N         -0.59080       -1.25050        3.04500
C          0.35830       -1.75100        2.01180
H          0.63170        2.01060        0.37680
H         -0.37220        1.69060       -1.05650
H         -1.10140        1.64750        0.56030
H          1.52430       -1.39230       -0.74530
H          2.19060        0.25110       -0.27960
H          2.34240        0.36450        2.46360
H          0.73270        1.07820        2.78300
H          1.36770       -1.52740        4.10550
H         -0.88340       -2.06400        3.58730
H          0.35880       -2.79160        1.71150
