18
gdb 11904	4.44083	1.61557	1.39053	1.2562	75.69	-0.2093	0.0167	0.226	954.1765	0.15331	-347.79867	-347.791137	-347.790193	-347.830458	29.311
C          0.23890        1.52610       -0.15880
C         -0.03650        0.04190        0.08280
O          0.40110       -0.72590       -1.04980
C          1.29040       -1.73960       -0.62840
C          1.21220       -3.08050       -1.31570
C          2.38380       -2.15350       -1.57720
C          1.46680       -1.56600        0.82890
C          0.70930       -0.55770        1.24900
H          1.31350        1.70440       -0.25740
H         -0.25640        1.85590       -1.07640
H         -0.14270        2.12790        0.67300
H         -1.12460       -0.09920        0.19940
H          1.37390       -3.97900       -0.72920
H          0.46660       -3.17200       -2.09760
H          2.40720       -1.63820       -2.53090
H          3.35720       -2.40940       -1.17180
H          2.11910       -2.19300        1.42310
H          0.61260       -0.18950        2.26230
