14
gdb 1219	8.27247	1.23425	1.08846	3.7148	55.9	-0.26	-0.0304	0.2296	1021.4169	0.110553	-361.728546	-361.72038	-361.719436	-361.76267	26.574
C         -0.14180        1.44680       -0.07500
C         -0.06200       -0.04650        0.10310
N         -0.12890       -0.73310        1.16740
O          0.10440       -0.64890       -1.09730
C          0.19710       -2.06910       -1.09010
C          0.37630       -2.51750       -2.52670
O          0.48630       -3.67100       -2.84630
H          0.77110        1.81900       -0.54990
H         -0.97680        1.70360       -0.73380
H         -0.27570        1.94750        0.88480
H         -0.25410       -0.13150        1.97790
H          1.04180       -2.40590       -0.47770
H         -0.70450       -2.52080       -0.66020
H          0.39760       -1.68650       -3.26600
