13
gdb 18856	3.79462	2.46528	2.06223	3.8199	56.51	-0.2432	-0.0167	0.2266	674.097	0.097039	-398.56666	-398.560994	-398.560049	-398.596416	21.971
O         -0.00130        0.01250       -0.02340
C         -0.04290        1.19840        0.04840
C         -1.14230        2.29090        0.05240
O         -1.49910        2.62700        1.38290
C         -0.28200        2.99250        2.04260
C          0.71230        3.28160        0.92510
C          0.01260        3.23170       -0.35350
N          1.06360        2.14850       -0.01300
H         -2.03690        2.16510       -0.55390
H         -0.46630        3.88270        2.65290
H          0.06320        2.18000        2.69530
H          1.55370        3.94020        1.10360
H          0.12360        3.86360       -1.22250
