13
gdb 14588	7.46949	0.6638	0.64884	2.297	67.65	-0.2646	-0.0404	0.2241	1616.8307	0.092871	-361.451796	-361.443053	-361.442108	-361.488245	28.274
O         -0.57320        0.44960        0.50330
C         -0.05350        1.48470        0.19130
C          1.35890        1.57530       -0.39700
C          1.46350        2.58850       -1.43570
C          1.49860        3.43460       -2.28900
C          1.56400        4.45440       -3.33310
C          2.03510        5.75490       -2.83770
N          2.40330        6.78120       -2.45870
H         -0.55820        2.46560        0.32350
H          2.03380        1.82520        0.43570
H          1.64670        0.58190       -0.75520
H          2.23300        4.13150       -4.14110
H          0.57790        4.59880       -3.79280
