22
gdb 15419	4.92326	0.86104	0.7965	1.035	80.19	-0.248	0.09	0.338	1530.6637	0.198853	-350.183931	-350.174104	-350.17316	-350.219305	34.771
C         -0.09930        1.55370       -0.44660
C         -0.00930        0.16270        0.19270
C         -1.35100       -0.54480        0.21800
C         -1.83200       -1.36210       -0.95690
C         -1.51560       -2.04270        0.35310
C         -0.34740       -2.98460        0.47030
O         -0.76530       -4.26980        0.05110
C          0.24510       -5.23830        0.17960
H          0.87440        2.05360       -0.45000
H         -0.45010        1.48790       -1.48180
H         -0.80080        2.19390        0.09970
H          0.72410       -0.43830       -0.35660
H          0.37750        0.25740        1.21620
H         -2.12210        0.03180        0.72540
H         -2.86710       -1.28710       -1.27100
H         -1.13210       -1.51880       -1.77290
H         -2.37080       -2.36840        0.93900
H          0.50180       -2.64450       -0.14480
H          0.01140       -3.02930        1.51410
H          1.12800       -4.99660       -0.43480
H          0.57960       -5.34820        1.22420
H         -0.16790       -6.19170       -0.15960
