12
gdb 5438	3.58854	1.97689	1.28489	4.989	62.77	-0.2626	-0.0381	0.2245	866.2604	0.084885	-377.575424	-377.568604	-377.567659	-377.606718	24.014
C          0.11770        1.50240        0.07550
C         -0.03010        0.02970        0.04300
C         -1.08940       -0.82180       -0.09760
N         -0.64080       -2.14350       -0.05450
C          0.63070       -2.02740        0.10540
O          1.08110       -0.74580        0.17410
C         -2.45230       -0.46580       -0.26420
N         -3.55430       -0.13810       -0.39850
H          0.77230        1.85060       -0.73040
H         -0.86120        1.97090       -0.04260
H          0.55260        1.83400        1.02420
H          1.37160       -2.80630        0.19040
