18
gdb 18370	3.08668	2.30319	1.62002	2.6983	65.96	-0.2453	0.0633	0.3085	832.1933	0.156336	-384.935219	-384.928421	-384.927477	-384.966083	27.001
O          0.02350        1.35290       -0.11480
C          0.05240       -0.04660        0.04720
C          0.57540       -0.53400        1.41890
C         -0.01560       -1.94720        1.57340
C         -1.41150       -1.85560        0.93250
C         -2.44500       -0.98560        1.67980
O         -2.28660        0.10670        0.74140
C         -1.35080       -0.66580       -0.05680
H         -0.75130        1.64980        0.38270
H          0.68490       -0.44480       -0.75610
H          1.66540       -0.50790        1.48500
H          0.18750        0.13640        2.19490
H          0.59050       -2.67430        1.02000
H         -0.05190       -2.28770        2.61310
H         -1.79180       -2.80910        0.56560
H         -3.47280       -1.36700        1.67200
H         -2.17980       -0.69280        2.70350
H         -1.71090       -0.78760       -1.08260
