14
gdb 306	9.35988	2.40174	2.08257	2.8997	53.83	-0.2394	-0.0163	0.2231	615.4797	0.118664	-270.446915	-270.440714	-270.43977	-270.476747	22.568
C         -0.46030        1.46040       -0.06700
C          0.10690        0.05190        0.03170
C          1.33500       -0.29770       -0.87080
C          2.01970       -0.88250        0.37450
O          2.97580       -1.58130        0.54520
C          0.94240       -0.30330        1.30480
H          0.32550        2.21150        0.07680
H         -0.91490        1.63840       -1.04740
H         -1.22900        1.63390        0.69360
H         -0.68940       -0.68410       -0.11380
H          1.18920       -0.98210       -1.71030
H          1.86350        0.59090       -1.23640
H          1.30890        0.58300        1.83650
H          0.51290       -0.99180        2.03710
