15
gdb 1267	6.77332	1.0256	0.94819	1.5467	62.29	-0.2595	0.0272	0.2867	1202.0457	0.122717	-345.613895	-345.605137	-345.604193	-345.648135	29.684
C          0.07080        1.47410       -0.18280
C          0.01820       -0.04560        0.03140
O          0.75120       -0.43850        1.19010
C         -1.36400       -0.53500        0.06610
C         -2.50880       -0.90930        0.12330
C         -3.87210       -1.43360        0.19700
O         -4.01790       -2.72260       -0.38120
H          1.11340        1.80170       -0.19860
H         -0.40790        1.75200       -1.12620
H         -0.44990        1.99320        0.62850
H          0.54250       -0.53480       -0.79850
H          0.25710       -0.13370        1.95940
H         -4.20520       -1.42430        1.24760
H         -4.55730       -0.78040       -0.35480
H         -3.33410       -3.28620       -0.00430
