20
gdb 9955	3.01338	1.4534	1.29223	0.6917	71.31	-0.2459	0.057	0.303	1069.2031	0.174503	-386.124862	-386.114905	-386.113961	-386.159313	35.738
C         -0.13270        0.87530       -1.98680
C         -0.01680       -0.28340       -1.01980
C          1.29830       -0.65890       -0.34610
C          2.58940        0.09330       -0.58980
C          0.17820       -0.05970        0.46440
O          0.37480        1.26150        0.91610
C         -0.55300       -0.90520        1.48490
O         -1.77480       -0.30320        1.89340
H          0.43630        1.74550       -1.65220
H          0.23480        0.59880       -2.98080
H         -1.17860        1.18330       -2.09980
H         -0.65670       -1.12650       -1.27090
H          1.43800       -1.72850       -0.19980
H          2.44080        1.17320       -0.54620
H          3.33130       -0.16380        0.17360
H          3.01710       -0.16020       -1.56600
H         -0.42430        1.75540        0.70250
H         -0.81030       -1.87830        1.05450
H          0.10210       -1.08360        2.35200
H         -1.53160        0.46830        2.41560
