16
gdb 10111	3.18058	1.43143	1.03284	3.6821	67.61	-0.2517	-0.0461	0.2056	1091.3254	0.127632	-383.710346	-383.701577	-383.700633	-383.743922	31.286
O          0.33830        1.33770        0.20520
C          0.14830        0.00210       -0.17570
C         -1.33820       -0.46440       -0.08720
C         -2.17990       -0.18370       -1.35560
C         -2.36450        1.24340       -1.80010
O         -1.77710        2.21620       -1.38750
C         -1.40810       -1.89530        0.19860
C         -1.44240       -3.07970        0.40220
H         -0.27010        1.87980       -0.31960
H          0.52340       -0.20790       -1.19260
H          0.73770       -0.60630        0.51540
H         -1.77420        0.08820        0.75520
H         -1.75110       -0.72000       -2.21640
H         -3.18490       -0.61230       -1.24360
H         -3.12600        1.36130       -2.60130
H         -1.47480       -4.12140        0.60570
