12
gdb 2673	20.45613	0.83079	0.80639	4.9516	64.25	-0.2863	-0.0404	0.2459	1286.7502	0.08936	-323.359825	-323.352178	-323.351234	-323.392057	25.367
O         -0.09980        1.44560        0.01080
C          0.04600        0.03970        0.00180
C         -1.37820       -0.53650        0.01230
C         -1.39830       -1.98700        0.00460
C         -1.39650       -3.19520       -0.00210
C         -1.39690       -4.56030       -0.00940
N         -1.39510       -5.72210       -0.01560
H          0.77560        1.84370        0.00500
H          0.57700       -0.31510       -0.89350
H          0.59400       -0.32470        0.88290
H         -1.90250       -0.16030        0.89900
H         -1.91940       -0.15060       -0.86000
