17
gdb 12466	3.45929	1.89904	1.36865	2.7283	70.72	-0.2379	-0.0524	0.1854	903.9475	0.144276	-363.875334	-363.868066	-363.867122	-363.906985	27.659
O         -0.00510       -0.10240        0.13220
C         -0.02570        1.10850        0.03090
C         -1.36720        1.85110       -0.07980
C         -1.36180        3.08090       -1.00800
C         -0.74590        4.33830       -0.35340
N          0.34270        4.04270        0.59710
C          1.36580        3.19700        0.07760
C          1.24250        1.87430       -0.09290
H         -2.08460        1.10230       -0.42600
H         -1.69500        2.13340        0.93140
H         -0.81580        2.82860       -1.92320
H         -2.38810        3.30780       -1.31640
H         -0.36990        5.02210       -1.12190
H         -1.50840        4.88330        0.21300
H         -0.06990        3.58770        1.40400
H          2.30460        3.69670       -0.15870
H          2.10420        1.27620       -0.37540
