21
gdb 6481	3.86521	1.35891	1.241	1.6015	76.19	-0.2056	0.0816	0.2872	1105.0425	0.186517	-366.227444	-366.218159	-366.217215	-366.260966	34.172
C          0.03590        1.37560       -0.06840
O         -0.05810       -0.01660        0.13500
C         -1.36340       -0.56780        0.08570
C         -2.27290       -0.01650        1.17560
C         -1.94560       -0.65890       -1.36090
N         -1.41700       -2.02960       -1.46470
C         -2.22510       -3.03650       -2.10820
C         -1.21440       -2.10700       -0.00680
H          1.10060        1.60980       -0.14570
H         -0.45800        1.69600       -0.99760
H         -0.38680        1.95510        0.76450
H         -2.50790        1.04030        1.01390
H         -3.21910       -0.56340        1.20020
H         -1.79110       -0.11430        2.15410
H         -3.04730       -0.60540       -1.36650
H         -1.55530        0.03990       -2.10930
H         -2.34390       -2.79630       -3.17040
H         -1.73020       -4.01140       -2.04000
H         -3.23730       -3.13740       -1.66700
H         -0.24420       -2.50660        0.30470
H         -2.02010       -2.63760        0.52640
