16
gdb 19066	5.30874	1.67098	1.65489	1.5446	63.33	-0.2431	0.0794	0.3225	817.4539	0.131972	-383.678902	-383.672767	-383.671822	-383.708782	25.336
O         -0.05440        1.34130       -0.05960
C          0.02220       -0.05540       -0.02100
C         -0.41930       -0.73310        1.26150
C         -1.31520       -0.73050        0.02520
C         -1.32470       -2.25130       -0.23450
C         -1.61330       -2.83790        1.17410
C         -0.18480       -2.25520        1.35170
O          0.07470       -2.62890       -0.03900
H          0.75230        1.68980        0.33360
H          0.82130       -0.50170       -0.60600
H         -0.63340       -0.13950        2.14140
H         -2.21800       -0.13820       -0.05040
H         -1.76440       -2.63670       -1.15390
H         -2.43320       -2.42070        1.76460
H         -1.61850       -3.92930        1.17400
H          0.54520       -2.64740        2.05940
