12
gdb 13746	3.22459	1.69641	1.43377	2.5541	55.25	-0.2692	-0.028	0.2412	863.0789	0.083096	-414.673301	-414.6657	-414.664756	-414.70563	26.7
N          0.55850        0.83980        0.52960
C         -0.27020        0.25250       -0.36450
O         -0.37290        0.54550       -1.53780
C         -1.11720       -0.86820        0.20610
O         -0.90860       -1.27370        1.55890
C         -2.14730       -0.63410        1.24790
C         -2.37150        0.67180        1.83020
N         -2.57870        1.70110        2.31220
H          1.10720        1.63210        0.23950
H          0.59080        0.52780        1.48550
H         -1.31090       -1.66820       -0.50500
H         -3.01870       -1.28550        1.26490
