13
gdb 3124	5.54947	2.27223	1.85868	2.5431	55.79	-0.25	-0.0287	0.2213	670.5929	0.101207	-344.416076	-344.409974	-344.409029	-344.446067	22.28
O         -0.11160       -0.01770        0.04320
C         -0.02540        1.18780       -0.00690
C          1.23950        1.92150        0.01940
C          1.36630        3.40890        0.33920
C          1.80200        2.94630       -0.99620
O          3.08800        2.35550       -0.97850
C          2.63000        1.30690       -0.07240
H         -0.93150        1.83120       -0.08710
H          0.41800        3.93820        0.36660
H          2.10230        3.72960        1.07080
H          1.40370        3.28650       -1.94550
H          3.22640        1.26220        0.84450
H          2.62840        0.33650       -0.57540
