14
gdb 19147	2.95269	2.03134	1.38888	3.7986	58.17	-0.2629	-0.0437	0.2192	872.3291	0.104818	-419.628801	-419.621307	-419.620363	-419.661092	26.448
O         -1.18200        1.46830        0.58580
C         -0.06570        1.03340        0.48200
C          1.07880        1.79550       -0.12270
C          2.36550        1.72380        0.61180
O          2.15440        0.96120       -0.56400
C          0.73760        2.98750       -0.96410
C          1.61020        3.41770       -2.06100
O          0.39470        2.71280       -2.32120
H          0.22360        0.02030        0.83950
H          3.05150        2.56390        0.51910
H          2.43310        1.15410        1.53770
H          0.09010        3.71030       -0.47050
H          1.61790        4.46570       -2.35600
H          2.51910        2.85600       -2.26410
