17
gdb 2946	6.08303	1.86038	1.53311	1.013	60.6	-0.252	0.0914	0.3434	834.2867	0.148817	-346.861837	-346.85444	-346.853496	-346.894088	25.885
C         -0.03370        1.54530        0.01500
C         -0.15650        0.02010        0.03820
C          0.61670       -0.60730        1.18190
O          0.10430       -0.17420        2.43560
C          0.17300       -1.27090        3.34120
C          0.74880       -2.42150        2.49100
O          0.47790       -2.00870        1.16250
H          1.00970        1.85910       -0.10110
H         -0.60240        1.96880       -0.81750
H         -0.41250        1.97790        0.94480
H         -1.20300       -0.28560        0.14170
H          0.22090       -0.41260       -0.89510
H          1.69100       -0.34000        1.12530
H          0.81350       -1.02580        4.19700
H         -0.83520       -1.49240        3.71060
H          1.83170       -2.53160        2.65420
H          0.26490       -3.38510        2.66390
