18
gdb 15557	2.91163	1.88897	1.29188	2.9236	73.24	-0.2365	-0.0277	0.2088	967.3825	0.153687	-347.8277	-347.819762	-347.818817	-347.860409	29.334
C         -0.70770        1.26630        0.05330
C          0.09190       -0.03460       -0.03430
C          1.26910       -0.01960       -1.04650
C          2.25140       -0.99320       -0.44300
C          1.94360       -1.30330        0.81620
C          0.72160       -0.54970        1.30570
C          1.16650        0.57250        2.23190
O          0.79250        0.71710        3.36710
H         -0.07710        2.11810        0.32960
H         -1.16770        1.50010       -0.91230
H         -1.50960        1.19240        0.79490
H         -0.58970       -0.83250       -0.35120
H          0.94810       -0.30240       -2.05560
H          1.71430        0.98180       -1.13850
H          3.10980       -1.37490       -0.98510
H          2.51240       -1.96110        1.46350
H          0.02110       -1.16730        1.87620
H          1.91100        1.26820        1.77900
