14
gdb 3497	7.06519	2.04655	1.94924	4.107	62.12	-0.3054	0.0245	0.3299	679.6258	0.11571	-287.404397	-287.39881	-287.397866	-287.433681	21.568
N         -0.08350       -1.18930       -0.10070
C         -0.04180       -0.03500       -0.04160
C         -0.00710        1.41750        0.01770
C          0.07070        2.12420        1.41530
C          1.54390        1.63190        1.52050
C          1.37960        2.14820        0.06100
C          0.61500        3.36700        0.65360
H         -0.73660        1.83790       -0.67980
H         -0.70070        2.09570        2.18430
H          2.20130        2.21800        2.16630
H          1.70030        0.55990        1.65270
H          2.12200        2.14740       -0.73640
H         -0.08070        3.88800       -0.00960
H          1.21140        4.06660        1.24240
