14
gdb 5743	4.10328	2.15442	1.4385	2.6559	64.35	-0.1957	0.0585	0.2542	816.2603	0.109978	-378.723978	-378.71755	-378.716606	-378.754766	24.15
O          0.05860        1.37460       -0.04300
C          0.08910        0.03460        0.06620
N          1.13250       -0.74740       -0.09390
C          0.69400       -2.05480        0.11510
C         -0.64000       -2.01770        0.40290
C         -2.05150       -2.47590        0.75140
C         -2.42920       -0.94500        0.70080
N         -1.00980       -0.69130        0.36900
H          0.95950        1.64280       -0.26360
H          1.37480       -2.88670        0.03820
H         -2.55710       -3.08900        0.00150
H         -2.17840       -2.93820        1.73320
H         -3.12080       -0.65360       -0.09270
H         -2.74050       -0.50240        1.64950
