22
gdb 18638	2.57887	2.04136	1.62742	0.1498	80.92	-0.2559	0.0784	0.3342	953.4327	0.202054	-313.077873	-313.069676	-313.068732	-313.10996	32.088
C         -0.15770        1.69440       -0.19150
C          0.08850        0.20290       -0.07570
C          1.38820       -0.51050       -0.37550
C          2.70510        0.25940       -0.33030
C          2.76840        0.93320        1.06350
C          1.79240        0.14590        1.97710
C          1.15610        0.99090        3.08560
C          0.81380       -0.54300        1.02810
H          0.70720        2.30370        0.07290
H         -0.43170        1.95110       -1.22150
H         -0.98840        2.00400        0.45290
H         -0.77310       -0.36270       -0.42770
H          1.34720       -1.38240       -1.02090
H          3.52880       -0.45430       -0.44580
H          2.80820        0.98750       -1.14330
H          3.78450        0.93480        1.46980
H          2.46660        1.98300        1.00570
H          2.36060       -0.66160        2.46030
H          0.56720        1.81440        2.66920
H          0.48930        0.38790        3.71120
H          1.92170        1.42380        3.73920
H          0.32660       -1.43690        1.40680
