15
gdb 8804	5.0731	1.14747	0.94684	0.9386	60.3	-0.241	-0.0607	0.1804	1178.8592	0.116584	-436.971554	-436.962326	-436.961381	-437.006136	30.829
C         -0.01530        1.44040        0.04910
N          0.15220        0.00590       -0.03840
C          0.59040       -0.62340       -1.14730
O          0.90120       -0.10050       -2.20600
C          0.67070       -2.15280       -0.95300
O          0.36320       -2.66910        0.09370
C          1.15820       -2.90610       -2.17050
O          1.19270       -4.27920       -1.88580
H          0.61980        1.86570        0.83380
H          0.27270        1.86610       -0.91330
H         -1.05680        1.70540        0.26100
H         -0.05830       -0.59430        0.74680
H          0.48690       -2.64460       -3.00490
H          2.14100       -2.48610       -2.44080
H          1.50480       -4.73580       -2.67210
