19
gdb 18646	3.48818	1.8414	1.6941	0.747	70.99	-0.2203	0.0884	0.3087	883.5684	0.166088	-365.037976	-365.030225	-365.029281	-365.069646	29.567
C         -0.19850        1.82220        0.73250
C         -0.52110        0.32830        0.70210
O         -0.32270       -0.22880       -0.60600
C          0.93590       -0.89550       -0.67060
C          1.31160       -1.24710        0.75540
C          0.38070       -0.47160        1.63040
N          0.33960       -1.92520        1.59860
C         -0.79260       -2.66350        1.04790
H          0.86380        1.99970        0.53560
H         -0.78210        2.34560       -0.02930
H         -0.44140        2.25230        1.71000
H         -1.58490        0.18170        0.93150
H          0.81220       -1.76530       -1.32700
H          1.71480       -0.25120       -1.10820
H          2.35970       -1.41550        0.98910
H          0.67920       -0.01690        2.57180
H         -1.24850       -2.21940        0.15450
H         -0.45600       -3.67620        0.80400
H         -1.55750       -2.74960        1.82620
