15
gdb 5501	3.22635	1.88771	1.19976	4.6092	70.76	-0.2222	-0.0288	0.1934	954.1602	0.119816	-362.721043	-362.713567	-362.712623	-362.752859	27.267
C         -0.02790        1.50250        0.04320
C         -0.00860        0.00300        0.02890
C         -0.02680       -0.79690       -1.08490
N          0.00090       -2.11620       -0.67380
C          0.03620       -2.18040        0.67920
C          0.03170       -0.88100        1.16460
C          0.06300       -0.52830        2.57650
O          0.09650       -1.32490        3.49350
H          0.85780        1.91790        0.53690
H         -0.05360        1.89950       -0.97560
H         -0.90340        1.89490        0.57240
H         -0.05670       -0.54340       -2.13280
H         -0.00430       -2.91110       -1.28980
H          0.06200       -3.11560        1.21390
H          0.05420        0.56590        2.78240
