9
gdb 21766	5.89742	2.40981	1.71076	2.9343	49.7	-0.2878	-0.0939	0.1939	642.0642	0.050423	-425.615378	-425.610462	-425.609518	-425.644413	18.246
O         -0.04300        1.31900        0.00970
N          1.32890        1.75790       -0.00110
N          2.09810        0.76890       -0.01400
N          1.34060       -0.35270       -0.01280
C          1.35360       -1.73310       -0.02050
N          0.11100       -2.14180       -0.01100
N         -0.76760       -1.04880        0.00350
C          0.02050       -0.01770        0.00170
H          2.24170       -2.34070       -0.03230
