21
gdb 9848	3.38352	1.42098	1.15377	1.7455	74.42	-0.2366	0.0563	0.2929	1125.3249	0.187322	-366.241398	-366.231793	-366.230849	-366.275478	35.433
C          0.01780        1.54850       -0.16890
C         -0.00900        0.01640       -0.18100
C         -1.39590       -0.57070        0.11360
O         -2.36140       -0.09640       -0.82700
C         -1.40750       -2.10500        0.18350
C         -0.44980       -2.72500        1.18130
C         -2.68950       -2.79560       -0.10010
N         -1.57030       -2.86780       -1.06730
H          1.01810        1.92440       -0.40310
H         -0.68060        1.97280       -0.89610
H         -0.26470        1.93540        0.81600
H          0.33370       -0.36510       -1.15460
H          0.70410       -0.36370        0.55680
H         -1.73190       -0.19530        1.09120
H         -1.90700        0.09940       -1.65210
H         -0.58920       -2.29360        2.17980
H         -0.62280       -3.80150        1.24820
H          0.59480       -2.57850        0.88970
H         -2.91670       -3.73060        0.40510
H         -3.54620       -2.18650       -0.36730
H         -1.78350       -2.21830       -1.82230
