20
gdb 12734	2.62475	2.16354	1.79143	1.5883	74.27	-0.2372	0.0746	0.3118	888.6096	0.176641	-348.984574	-348.976488	-348.975544	-349.016698	31.033
C          0.26320        1.57330        0.02410
C          0.06690        0.06540        0.03830
C          0.91220       -0.81020       -0.94460
C          1.41260       -1.68250        0.23900
C          2.68470       -1.14710        0.90410
O          1.93430       -0.18290        1.67850
C          0.66440       -0.73630        1.23260
C         -0.21540       -1.13650        2.38820
H          1.30920        1.82340        0.22090
H         -0.02020        1.99490       -0.94640
H         -0.34670        2.06360        0.79090
H         -0.99740       -0.17700       -0.06360
H          0.32000       -1.34890       -1.68760
H          1.70900       -0.27240       -1.46840
H          1.26580       -2.76080        0.18540
H          3.20000       -1.86400        1.55770
H          3.42300       -0.67100        0.24620
H         -0.50670       -0.25080        2.96480
H         -1.12810       -1.62700        2.03450
H          0.30990       -1.81890        3.06340
