17
gdb 17729	4.52281	2.47794	2.02413	2.0236	71.36	-0.2208	0.0844	0.3052	713.1506	0.145207	-326.617093	-326.61162	-326.610676	-326.646229	23.499
C         -0.05300        1.54510       -0.00110
N          1.46490        1.30720       -0.04880
C          1.29190        0.17690        0.99580
C          1.85180       -0.98310        0.16540
C          0.81650       -2.13830        0.33170
C         -0.57560       -1.38020        0.32070
C          0.00180        0.01410        0.15180
C          1.20560       -0.00800       -0.82470
H         -0.37460        2.14000        0.86000
H         -0.45940        1.95830       -0.93000
H          1.36040        0.38330        2.06580
H          2.90920       -1.25170        0.14250
H          0.88870       -2.86230       -0.48540
H          0.97180       -2.68440        1.26710
H         -1.21350       -1.69930       -0.50820
H         -1.13010       -1.52050        1.25280
H          1.17170       -0.02100       -1.91600
