22
gdb 9682	4.77199	1.04479	0.98644	1.2563	79.13	-0.2497	0.0708	0.3205	1316.4319	0.198215	-350.201679	-350.19183	-350.190886	-350.236008	36.464
C         -0.37200        1.45900        0.23850
C          0.23220        0.08930       -0.09060
C          0.92200       -0.54660        1.09880
C          0.11330       -1.29490        2.14840
C          1.06280       -2.03650        1.23350
O          0.49540       -2.78380        0.18360
C          2.34470       -2.62830        1.79010
C          2.15320       -4.02010        2.40420
H          0.39700        2.16190        0.57850
H         -0.85890        1.89790       -0.63820
H         -1.11960        1.37910        1.03490
H         -0.54330       -0.58970       -0.45700
H          0.95370        0.19490       -0.91120
H          1.76310        0.02680        1.48480
H          0.36770       -1.18110        3.19740
H         -0.94740       -1.41420        1.94960
H          0.05300       -3.54650        0.56990
H          3.08290       -2.68300        0.98010
H          2.75150       -1.94430        2.54400
H          1.43030       -3.99570        3.22730
H          1.79200       -4.73360        1.65580
H          3.09600       -4.41140        2.79760
