15
gdb 6732	6.4966	0.73016	0.69436	2.1294	67.02	-0.24	0.0261	0.2661	1572.6991	0.116335	-399.790563	-399.780833	-399.779889	-399.828119	32.1
N         -0.19490        1.28970        0.41160
C          0.10890        0.02010        0.00470
O          1.24150       -0.40160       -0.04930
C         -1.12110       -0.79060       -0.45430
C         -0.94620       -2.22800       -0.33560
C         -0.82110       -3.41870       -0.22770
C         -0.63110       -4.85810       -0.11200
O         -1.60300       -5.40140        0.77540
H          0.55910        1.85860        0.76160
H         -1.13730        1.57690        0.60930
H         -2.01400       -0.47450        0.09980
H         -1.30440       -0.51400       -1.50210
H         -0.70790       -5.31460       -1.11250
H          0.39190       -5.05260        0.24870
H         -1.43030       -6.34600        0.84290
