18
gdb 9149	4.84712	0.7815	0.69566	3.0653	73.98	-0.2503	0.026	0.2763	1617.1904	0.151766	-384.909572	-384.899741	-384.898797	-384.946365	34.041
C          0.04930        1.48820        0.13940
C         -0.03660       -0.02410       -0.13850
C         -1.40140       -0.53670       -0.07530
C         -2.53830       -0.93590       -0.03840
C         -3.90610       -1.43000        0.07710
O         -3.96450       -2.85700        0.23190
C         -4.66170       -0.77550        1.24900
O         -5.95100       -1.32800        1.36530
H          1.08810        1.82570        0.08200
H         -0.53730        2.05120       -0.59140
H         -0.33600        1.72330        1.13510
H          0.38860       -0.24170       -1.12640
H          0.58680       -0.56540        0.58470
H         -4.46840       -1.22960       -0.84250
H         -3.25650       -3.10630        0.83720
H         -4.06690       -0.91030        2.16880
H         -4.76870        0.29960        1.07450
H         -5.82840       -2.28200        1.26880
