16
gdb 8230	5.69446	1.0344	1.00221	3.6225	62.28	-0.2496	0.0503	0.2999	1170.8382	0.131172	-417.071108	-417.062913	-417.061969	-417.104857	29.078
N          0.05420        1.37100        0.06910
C          0.12190       -0.01050       -0.06340
O          1.16660       -0.60290       -0.25430
N         -1.10070       -0.64030        0.07020
C         -1.20470       -2.07090        0.11020
C         -1.74920       -2.76350        1.38480
O         -2.70830       -3.50620        0.60710
C         -2.41840       -2.73810       -0.57700
H          0.89970        1.82590       -0.24090
H         -0.79120        1.83210       -0.23300
H         -1.86810       -0.10780        0.45040
H         -0.24270       -2.46370       -0.21500
H         -1.06330       -3.41600        1.93560
H         -2.23350       -2.07280        2.09190
H         -3.22750       -2.03460       -0.82440
H         -2.21860       -3.37290       -1.44720
