15
gdb 8128	4.23499	1.90364	1.54619	4.1985	62.28	-0.2453	0.054	0.2993	834.1775	0.118846	-399.804629	-399.797748	-399.796804	-399.83555	26.442
C         -0.18450        1.57170        0.09160
C          0.09660        0.10020        0.05730
C         -0.76060       -0.96120        0.71410
C          0.67920       -0.75900        1.13160
O          1.63130       -1.58680        0.49970
C          1.62810       -1.31850       -0.84640
N          2.31100       -1.88880       -1.73240
O          0.74760       -0.32410       -1.13090
H          0.73510        2.14510       -0.05750
H         -0.89440        1.84700       -0.69450
H         -0.61930        1.85090        1.05510
H         -1.52160       -0.61730        1.40640
H         -1.01010       -1.85250        0.14840
H          0.97750       -0.43700        2.12100
H          2.90570       -2.59980       -1.31430
