17
gdb 10120	2.49733	1.66572	1.10382	2.1417	66.41	-0.2576	-0.0404	0.2173	1073.9138	0.14037	-401.040005	-401.030985	-401.030041	-401.074343	31.039
C          0.08770        1.55080       -0.38320
C          0.10020        0.03880       -0.15080
C          0.80960       -0.75440       -1.27570
N          2.22330       -0.46640       -1.40410
C          2.70410        0.38340       -2.35270
O          2.02320        1.11540       -3.04020
C          0.63100       -2.23800       -1.01500
O          1.54310       -3.00300       -0.82470
H          1.10230        1.95410       -0.42240
H         -0.40100        1.80280       -1.32840
H         -0.44720        2.05360        0.42820
H          0.59250       -0.19390        0.80160
H         -0.92970       -0.33280       -0.07090
H          0.31890       -0.50680       -2.22740
H          2.83940       -1.18030       -1.03750
H          3.80890        0.34640       -2.41790
H         -0.42600       -2.57610       -0.97460
