20
gdb 6703	5.84635	0.76175	0.70046	4.2875	76.99	-0.2465	0.0232	0.2697	1605.6189	0.176019	-345.193629	-345.183813	-345.182869	-345.228985	34.328
C         -0.07520        1.56060       -0.07040
C          0.02140        0.02940       -0.01140
C          0.73080       -0.52090       -1.25550
C          0.73570       -0.45970        1.25620
N          0.01600       -0.09480        2.47500
C          0.65720       -0.61500        3.67560
C         -0.05530       -0.18800        4.88340
N         -0.60160        0.16690        5.83710
H          0.92020        2.02020       -0.03590
H         -0.55480        1.88200       -1.00030
H         -0.66950        1.97080        0.75240
H         -0.99760       -0.37710        0.01910
H          1.75870       -0.14500       -1.32300
H          0.77570       -1.61500       -1.24120
H          0.20890       -0.21930       -2.16880
H          0.79840       -1.55550        1.22950
H          1.77980       -0.08820        1.25320
H         -0.05280        0.91440        2.54920
H          0.64390       -1.71170        3.63740
H          1.71820       -0.32210        3.78790
