11
gdb 23789	6.106	1.61009	1.27536	4.8184	56.32	-0.2461	-0.0775	0.1686	839.7227	0.073088	-434.880066	-434.873907	-434.872963	-434.91037	23.135
N         -0.02140        1.36660       -0.15730
C          0.02490       -0.00430       -0.05750
N         -1.14050       -0.65560       -0.01580
N         -1.13760       -1.98600        0.00950
C          0.03060       -2.59250        0.00790
F         -0.00430       -3.91020        0.03660
N          1.23990       -2.04080       -0.01280
C          1.23920       -0.72420       -0.05020
H          0.75800        1.88350        0.21790
H         -0.92580        1.76380        0.05350
H          2.20190       -0.21710       -0.07380
