14
gdb 10470	2.85473	1.64402	1.18789	3.6035	59.16	-0.258	-0.0531	0.2049	980.1248	0.103499	-419.666606	-419.65843	-419.657485	-419.700369	27.766
O          0.52290       -0.29290        0.06130
C          0.23540        0.81390       -0.30810
C          1.02620        2.05830        0.06880
C          1.20130        3.01070       -1.09230
C          2.51860        3.60690       -1.41640
O          1.99270        2.55580       -2.20560
C          0.00230        3.80050       -1.52790
O         -1.01840        3.87860       -0.89350
H         -0.65720        0.99990       -0.94400
H          0.45460        2.58120        0.84720
H          1.98500        1.74570        0.48720
H          2.57530        4.57980       -1.90350
H          3.36110        3.35090       -0.77620
H          0.14250        4.31060       -2.50560
