15
gdb 4259	3.99433	1.85033	1.27459	6.3168	73.33	-0.2053	-0.0129	0.1923	920.2499	0.121384	-358.889991	-358.882866	-358.881922	-358.921272	26.74
C          0.01160        1.50430       -0.03300
C         -0.04800        0.00900        0.01130
C         -1.15610       -0.74130       -0.13200
C         -1.10220       -2.20080       -0.07130
N         -2.16630       -2.90170       -0.20950
N          0.17210       -2.78770        0.14540
C          1.18820       -2.01860        0.27390
N          1.15930       -0.65080        0.22030
H          0.67040        1.85120       -0.83860
H         -0.98280        1.91940       -0.20180
H          0.40010        1.91370        0.90760
H         -2.11950       -0.27620       -0.29660
H         -1.91380       -3.88970       -0.13520
H          2.17600       -2.44680        0.44090
H          2.01130       -0.12650        0.33230
