18
gdb 1240	6.4626	1.13351	1.02	4.2459	68.71	-0.3136	0.0381	0.3517	1144.5955	0.15912	-289.87199	-289.863454	-289.86251	-289.905076	30.158
C          0.08150        1.56380        0.01530
C          0.00390        0.03020        0.03010
C          0.74200       -0.53630        1.25080
C         -1.44450       -0.48910        0.00420
C         -2.20960       -0.12940       -1.28650
C         -3.55150       -0.70690       -1.31640
N         -4.60950       -1.17180       -1.32310
H          1.12270        1.89870        0.05550
H         -0.36370        1.99740       -0.88560
H         -0.43680        1.98890        0.88310
H          0.50850       -0.34500       -0.87250
H          0.27490       -0.19700        2.18290
H          0.73220       -1.63100        1.25230
H          1.78640       -0.20890        1.26540
H         -1.44030       -1.57930        0.11080
H         -1.99450       -0.09480        0.86750
H         -2.30300        0.95600       -1.39680
H         -1.65920       -0.48850       -2.16450
