20
gdb 16250	2.77765	2.19281	1.44235	1.4957	74.3	-0.2513	0.0717	0.323	929.7545	0.178341	-349.00454	-348.996557	-348.995613	-349.037436	30.781
O          0.17650        1.09070       -0.65900
C          0.05750       -0.19910       -0.08500
C          0.49160       -0.31110        1.38460
C         -0.16370       -1.62670        1.85090
C         -1.46540       -1.76720        1.00090
C         -1.40010       -0.64050       -0.03320
C         -2.48940        0.40070       -0.11900
C         -2.28380       -0.58740       -1.24410
H          1.11210        1.29020       -0.75440
H          0.62800       -0.92980       -0.68570
H          1.57830       -0.30120        1.51850
H          0.07790        0.54840        1.92430
H          0.50590       -2.47040        1.65510
H         -0.36410       -1.62910        2.92510
H         -1.50420       -2.74950        0.51740
H         -2.36560       -1.68610        1.61740
H         -3.35660        0.27360        0.52150
H         -2.19430        1.42770       -0.29510
H         -1.85290       -0.20720       -2.16480
H         -3.01580       -1.37760       -1.37990
