17
gdb 4039	3.44782	1.44173	1.29145	1.4383	67.48	-0.2516	0.0029	0.2545	1013.9501	0.138727	-400.942217	-400.933098	-400.932154	-400.97635	32.456
C         -0.48580        1.35800        0.01070
C         -0.03320       -0.07550        0.06100
N          0.28720       -0.71290        1.12080
O          0.18920        0.08980        2.26630
C          0.05960       -0.84180       -1.22770
C          1.11170       -0.36410       -2.20550
C         -0.44860       -2.21550       -1.28240
O         -1.22500       -1.13140       -1.81030
H          0.37180        2.04080        0.02580
H         -1.06150        1.54470       -0.89830
H         -1.09690        1.59070        0.88490
H          0.41730       -0.53000        2.96720
H          2.11360       -0.48330       -1.78050
H          1.04940       -0.93600       -3.13460
H          0.97010        0.69440       -2.44730
H         -0.04800       -2.90300       -2.02620
H         -0.83760       -2.67530       -0.37780
