13
gdb 7021	9.1711	0.93191	0.85031	0.3969	63.28	-0.2766	-0.0289	0.2478	1255.9508	0.092575	-398.593011	-398.584585	-398.583641	-398.627	28.495
N         -0.31830        1.35080        0.01440
C         -0.05970        0.12120        0.00400
O         -1.12000       -0.75520        0.00970
C         -0.84520       -2.10070       -0.00210
O          0.25430       -2.57000       -0.01660
C         -2.16840       -2.85280        0.00570
C         -2.02710       -4.29820        0.00030
C         -1.93440       -5.49440       -0.00430
H          0.54870        1.88620        0.00850
H          0.90640       -0.38330       -0.00950
H         -2.73350       -2.51050        0.88190
H         -2.74600       -2.50550       -0.86050
H         -1.84160       -6.55230       -0.00920
