18
gdb 18573	3.59973	1.93938	1.59995	1.1086	73.99	-0.2309	0.0164	0.2473	862.269	0.155417	-347.784506	-347.77754	-347.776596	-347.815451	27.863
O          0.15650        1.40440       -0.00270
C          0.07610        0.00150        0.01080
C          0.15760       -0.63390        1.45680
C         -1.35310       -0.64140        1.39690
C         -2.45630       -0.16410        1.96610
C         -3.50240        0.11670        0.88820
C         -2.65480        0.22450       -0.42480
C         -1.39020       -0.59110       -0.10750
H         -0.45410        1.74030        0.66560
H          0.80840       -0.35280       -0.71800
H          0.60240       -1.63410        1.42600
H          0.65340       -0.04180        2.23030
H         -2.60890        0.06730        3.01440
H         -4.24770       -0.68830        0.81930
H         -4.06400        1.03480        1.09420
H         -3.19580       -0.12550       -1.30770
H         -2.38120        1.27100       -0.60370
H         -1.35860       -1.57130       -0.59720
