13
gdb 5511	3.7575	1.97813	1.30657	3.9034	67.31	-0.2495	-0.0345	0.2151	863.2888	0.09787	-357.697679	-357.690634	-357.68969	-357.729491	24.558
C         -0.03270        1.44340        0.06520
N         -0.01130       -0.00870        0.02940
C         -0.02920       -0.80660       -1.06660
N          0.00060       -2.09130       -0.76510
C          0.04010       -2.13880        0.59450
C          0.03430       -0.86110        1.12360
C          0.06440       -0.39100        2.45150
N          0.08830        0.01140        3.53880
H          0.86910        1.82960        0.54730
H         -0.07790        1.81620       -0.95890
H         -0.90700        1.80110        0.61500
H         -0.06460       -0.39380       -2.06440
H          0.07080       -3.06990        1.13910
