19
gdb 12225	3.68682	1.4264	1.12583	4.3808	73.81	-0.2374	0.0273	0.2647	1091.3423	0.16492	-365.082868	-365.074082	-365.073138	-365.116907	31.324
C         -0.53720        1.43950       -0.06190
C          0.08560        0.05140       -0.02330
C          1.40900       -0.13890       -0.82490
N          2.07020       -0.52070        0.42160
C          3.24920       -1.15640        0.59590
O          4.06250       -1.35660       -0.28450
C          0.87150       -0.38970        1.26800
C          0.99880        0.58380        2.43260
H          0.19300        2.22260        0.16460
H         -0.93930        1.64450       -1.05970
H         -1.36270        1.53070        0.65170
H         -0.66520       -0.69420       -0.29510
H          1.40920       -0.93370       -1.57740
H          1.81670        0.77170       -1.27830
H          3.40010       -1.47260        1.64940
H          0.52630       -1.36100        1.64540
H          1.37400        1.55700        2.10560
H          0.02850        0.72860        2.91920
H          1.69170        0.19230        3.18410
