19
gdb 5939	4.27185	1.14145	1.1337	4.8653	71.43	-0.2818	0.0312	0.313	1122.5153	0.16317	-365.083186	-365.073499	-365.072555	-365.117166	34.891
C         -0.04170        1.56540        0.06290
C          0.00130        0.02840        0.05680
C          0.72610       -0.49430        1.30810
C         -1.43030       -0.53400        0.00940
O         -2.12700       -0.09780        1.16320
C          0.71230       -0.48310       -1.22750
C          2.09860       -0.03670       -1.34330
N          3.19450        0.32100       -1.42680
H          0.96760        1.98540        0.09530
H         -0.53980        1.95070       -0.83420
H         -0.59590        1.92110        0.93370
H          0.19000       -0.18590        2.20780
H          0.77920       -1.58910        1.30600
H          1.74750       -0.10680        1.35970
H         -1.92930       -0.18440       -0.90970
H         -1.38840       -1.63510       -0.03440
H         -3.02180       -0.44700        1.12890
H          0.70590       -1.57970       -1.25020
H          0.17070       -0.14300       -2.11860
