15
gdb 18783	3.84875	2.35001	1.91759	2.682	63.92	-0.2461	-0.0311	0.2149	723.8719	0.120862	-362.620283	-362.614441	-362.613497	-362.650112	23.278
O          0.02920        0.00850       -0.06180
C         -0.00220        1.20140        0.02430
C         -1.11450        2.25120        0.04310
C         -1.30770        2.88930        1.44050
C         -0.03410        3.71240        1.16350
C          1.30120        2.96470        1.34750
C          1.04630        2.31370       -0.03400
N         -0.07600        3.32560       -0.32390
H         -1.98460        2.09000       -0.59560
H         -2.19560        3.52550        1.45250
H         -1.33250        2.23030        2.31210
H         -0.05540        4.77160        1.42460
H          2.14960        3.65110        1.29750
H          1.42600        2.31000        2.21370
H          1.87650        2.20160       -0.73330
