16
gdb 9011	6.80992	0.824	0.75989	1.1489	76.37	-0.2444	0.0287	0.2731	1469.6658	0.126636	-346.539988	-346.530136	-346.529192	-346.576199	33.519
C          0.00940        1.50190       -0.00200
C          0.00660        0.04690        0.04300
C          0.00580       -1.15630        0.07520
C         -0.01460       -2.61140        0.12430
C         -1.43290       -3.20220       -0.10670
O         -1.98140       -2.81260       -1.35520
C         -1.40500       -4.66070        0.04690
C         -1.34550       -5.85830        0.13480
H          0.83000        1.87950       -0.62220
H         -0.92630        1.88590       -0.42300
H          0.12480        1.93370        0.99830
H          0.65920       -3.03510       -0.63250
H          0.35230       -2.97070        1.09380
H         -2.10570       -2.77000        0.64220
H         -1.49390       -3.27510       -2.04630
H         -1.31540       -6.91640        0.22390
