19
gdb 6911	4.86021	1.06592	0.98756	1.843	78.35	-0.2399	0.0582	0.2981	1241.7256	0.162995	-327.876771	-327.867498	-327.866554	-327.910611	34.277
C          0.03470        1.52440       -0.15870
C         -0.03260        0.02570        0.06080
C         -1.21730       -0.64370       -0.61040
N          1.26920       -0.67280        0.03010
C          0.51280       -0.61800        1.29060
C          1.15080        0.13290        2.45230
C          1.99030       -0.73450        3.27300
C          2.66510       -1.47210        3.94030
H          0.94520        1.95420        0.26160
H          0.02940        1.74930       -1.23120
H         -0.83000        2.02600        0.29050
H         -1.17360       -0.50750       -1.69760
H         -1.24000       -1.71840       -0.40310
H         -2.16420       -0.21470       -0.26370
H          1.17880       -1.58920       -0.40180
H          0.00750       -1.53020        1.60510
H          1.75140        0.96170        2.06520
H          0.36280        0.57430        3.07730
H          3.27200       -2.11250        4.53050
