13
gdb 1047	7.77972	2.09934	1.67563	1.8321	56.04	-0.1999	0.0319	0.2318	716.9014	0.103522	-340.663929	-340.657502	-340.656558	-340.694315	22.842
C          0.02180        1.41020       -0.05100
N         -0.04200       -0.02870        0.14800
C         -1.25240       -0.64910        0.06050
N         -2.43520       -0.10920        0.07730
C         -3.29340       -1.20800        0.03120
C         -2.57860       -2.34870       -0.02140
O         -1.23720       -2.00160       -0.00340
H          1.02550        1.75640        0.20430
H         -0.21370        1.71290       -1.08040
H         -0.69830        1.89130        0.61320
H          0.72990       -0.57240       -0.20570
H         -4.36500       -1.08440        0.03490
H         -2.79690       -3.40010       -0.07550
