20
gdb 18083	4.65033	1.1693	1.1303	0.866	75.62	-0.2481	0.0853	0.3334	1161.0297	0.177414	-348.958231	-348.950033	-348.949089	-348.991491	30.273
C          0.22230        1.32030       -0.07580
O          0.37160       -0.07680       -0.03590
C          0.51380       -0.57370        1.28170
C          0.60060       -2.07600        1.21800
C          1.82790       -2.85930        0.83800
C          3.10900       -2.22080        1.38900
C          2.52500       -2.33230        2.83510
C          1.24580       -2.95520        2.25660
H          1.09500        1.84030        0.35240
H          0.12060        1.61080       -1.12460
H         -0.67330        1.65450        0.47320
H          1.40360       -0.13310        1.75740
H         -0.35410       -0.27390        1.89530
H         -0.30450       -2.52050        0.80900
H          1.79370       -3.58870        0.03760
H          3.98770       -2.85490        1.25350
H          3.34910       -1.21930        1.01820
H          3.08830       -3.04270        3.44430
H          2.41180       -1.40720        3.40960
H          0.69580       -3.76880        2.71530
