16
gdb 16819	3.66746	2.01098	1.50022	4.9721	64.62	-0.2532	0.0341	0.2874	850.1972	0.132236	-379.943246	-379.936175	-379.935231	-379.974482	26.927
C         -0.15640        1.60040        0.00960
C          0.04410        0.08440        0.01630
N          0.90180       -0.39990       -1.05090
C          1.86560       -1.30020       -0.66430
O          2.63200       -1.88960       -1.37990
N          1.81510       -1.42990        0.77870
C          2.21370       -0.15660        1.42950
C          0.78200       -0.47900        1.23350
H          0.80070        2.12460        0.07640
H         -0.66300        1.92430       -0.90550
H         -0.77940        1.90230        0.85740
H         -0.94380       -0.39760       -0.03530
H          0.72770       -0.23450       -2.02860
H          2.66160       -0.27580        2.41080
H          2.67360        0.60190        0.80210
H          0.18180       -0.79510        2.08020
