15
gdb 19714	3.63569	2.62803	2.5481	1.7019	62.6	-0.2338	0.0144	0.2482	647.9619	0.121862	-362.605399	-362.600111	-362.599167	-362.634365	22.764
N         -0.03580        1.49450        0.00520
C          1.27670        0.81200       -0.00160
C          0.03640        0.01690        0.00640
C          0.07970       -0.67460       -1.40220
O          1.49800       -0.91370       -1.51350
C          1.87400        0.47560       -1.41390
C          0.98900        1.10420       -2.48490
C         -0.13190        0.38570       -2.47760
H         -0.23270        1.81130        0.95440
H          1.93960        0.89020        0.85150
H         -0.30350       -0.54780        0.86610
H         -0.47530       -1.60820       -1.47730
H          2.95320        0.58960       -1.49960
H          1.20690        2.01320       -3.02680
H         -1.05400        0.56390       -3.01200
