15
gdb 16880	4.21959	1.93664	1.46389	3.6145	61.57	-0.2332	0.0239	0.2571	829.925	0.120813	-399.811024	-399.804478	-399.803534	-399.841744	25.372
O         -0.01080       -0.03910       -0.22520
C         -0.02240        1.16210       -0.04880
C         -1.31670        1.96580        0.09810
O         -1.17520        3.07030        0.98350
C         -0.18510        3.95980        0.56560
C          1.04060        4.07820        1.42940
C          1.10510        3.34940        0.09760
N          1.11030        1.92070        0.05880
H         -1.65800        2.29060       -0.89710
H         -2.07290        1.30440        0.52220
H         -0.55980        4.84260        0.04990
H          1.52730        5.04350        1.51050
H          1.05230        3.46380        2.32190
H          1.62950        3.83460       -0.72160
H          1.98550        1.41680        0.04440
