11
gdb 4453	3.5714	1.98328	1.2841	3.2353	49.38	-0.2232	0.034	0.2573	846.1286	0.071492	-471.711417	-471.704208	-471.703264	-471.743015	25.652
N          0.00550        1.44260        0.00010
C         -0.08330        0.07000       -0.00280
C         -1.11460       -0.77410        0.04370
O         -2.43020       -0.57130        0.10970
O         -0.67750       -2.07550        0.01520
C          0.70930       -2.03940       -0.05330
O          1.40070       -3.00550       -0.09230
O          1.09160       -0.75120       -0.06510
H          0.48960        1.82160        0.80680
H          0.40800        1.83030       -0.84630
H         -2.86990       -1.43010        0.12690
