17
gdb 15617	3.45728	1.73777	1.2797	1.2353	67.05	-0.2525	0.0232	0.2757	978.7651	0.141718	-401.01234	-401.003961	-401.003017	-401.045705	29.143
C         -0.06840        1.46520        0.04520
N         -0.10900        0.01180        0.04680
C          0.61960       -0.63510        0.83850
O          1.51460       -0.11670        1.73910
C          2.00840       -1.19180        2.53230
O          1.79050       -2.37390        1.81310
C          0.65780       -2.14810        0.96890
C         -0.63490       -2.72800        1.54070
H          0.51170        1.90040        0.86680
H          0.35670        1.81250       -0.90380
H         -1.09330        1.84850        0.09180
H          3.08200       -1.05580        2.69220
H          1.47710       -1.19040        3.49780
H          0.87720       -2.60380       -0.00080
H         -0.86530       -2.29480        2.51900
H         -1.46270       -2.50340        0.86290
H         -0.54550       -3.81170        1.65190
