18
gdb 8174	2.93986	2.42105	1.67419	1.8515	72.31	-0.2218	0.0124	0.2342	844.8245	0.153163	-347.771659	-347.764165	-347.763221	-347.802865	29.417
C          0.04560        1.46270        0.02250
C          0.01960       -0.02430       -0.01620
C         -0.03490       -0.90270       -1.02110
C         -0.03050       -2.24090       -0.26460
C          1.12130       -2.02170        0.75550
C          0.04900       -0.97860        1.21540
C         -0.07690       -0.44000        2.61260
O         -0.97050       -1.96900        0.82840
H          0.95040        1.83810        0.51820
H          0.01340        1.88760       -0.98460
H         -0.80600        1.86430        0.58650
H         -0.06970       -0.74810       -2.08990
H         -0.20820       -3.17550       -0.79440
H          1.22770       -2.84680        1.46530
H          2.08670       -1.66300        0.39110
H          0.74280        0.25100        2.83450
H         -1.02150        0.10020        2.73430
H         -0.05150       -1.25290        3.34290
