16
gdb 20867	6.93949	1.05836	0.97633	4.1829	67.53	-0.2678	-0.0339	0.2339	1192.996	0.130226	-379.912643	-379.904868	-379.903924	-379.945656	27.473
C         -0.12040        1.57710        0.04480
C         -0.07380        0.04850        0.01580
C          0.81470       -0.52910        1.13580
C          0.86070       -2.01790        1.13780
C          1.85300       -2.92790        0.92960
N          1.29120       -4.17620        1.04540
N          0.06550       -4.09240        1.30040
O         -0.26680       -2.69110        1.37140
H          0.87830        2.00920       -0.08260
H         -0.75540        1.96470       -0.75700
H         -0.52230        1.94390        0.99550
H         -1.08370       -0.36220        0.11950
H          0.30420       -0.29810       -0.95320
H          1.83840       -0.15330        1.03680
H          0.44150       -0.18430        2.10830
H          2.89800       -2.78660        0.71400
