19
gdb 7352	4.14426	1.09749	0.9552	1.9885	68.85	-0.2427	0.0159	0.2586	1283.1705	0.163748	-402.237276	-402.227312	-402.226368	-402.273203	34.245
C         -0.06560        1.49590       -0.15460
C          0.02300       -0.01200       -0.02230
O          0.65410       -0.52030       -1.21620
C          0.82190       -1.85470       -1.27480
O          0.46550       -2.61670       -0.40950
C          1.53900       -2.27250       -2.56340
C          3.02890       -1.91050       -2.45410
N          1.38810       -3.69040       -2.86680
H          0.92930        1.93880       -0.25460
H         -0.65680        1.77730       -1.03060
H         -0.54340        1.91910        0.73400
H          0.61520       -0.31430        0.84710
H         -0.96380       -0.47450        0.07860
H          1.10310       -1.69170       -3.38390
H          3.53750       -2.18340       -3.38130
H          3.16050       -0.84190       -2.26870
H          3.49750       -2.46340       -1.63240
H          1.63470       -4.22080       -2.03350
H          0.40490       -3.89820       -3.02120
