24
gdb 9424	3.29253	0.93576	0.77372	0.8826	83.09	-0.246	0.0879	0.3338	1592.9635	0.220823	-351.416749	-351.40587	-351.404926	-351.45338	38.319
C         -0.00760        1.51250        0.08730
C         -0.07700       -0.00360       -0.11000
C          0.83430       -0.48850       -1.23060
O          0.70290       -1.88980       -1.34120
C          1.39180       -2.48880       -2.43350
C          2.89090       -2.62380       -2.15030
C          0.73200       -3.84730       -2.68210
C         -0.74400       -3.74440       -3.07200
H          1.00760        1.83680        0.34190
H         -0.30760        2.04780       -0.82040
H         -0.67020        1.83490        0.89570
H          0.20420       -0.52090        0.81450
H         -1.10360       -0.31170       -0.33920
H          0.55870       -0.00320       -2.18340
H          1.87610       -0.19940       -1.01460
H          1.25190       -1.85820       -3.32970
H          3.40260       -3.08410       -3.00160
H          3.35810       -1.65150       -1.96990
H          3.05450       -3.25070       -1.26770
H          1.29560       -4.36660       -3.46650
H          0.83690       -4.44710       -1.76930
H         -1.30680       -3.21690       -2.29820
H         -0.86770       -3.19470       -4.01230
H         -1.18770       -4.73560       -3.20610
