18
gdb 15050	2.86217	1.53731	1.07476	3.1596	72.72	-0.2461	0.0319	0.2779	1118.7264	0.153876	-343.971568	-343.96279	-343.961846	-344.005309	31.324
C         -0.07750        1.45840       -0.10550
N         -0.16780        0.05460        0.29010
C         -1.44880       -0.57950        0.00160
C         -1.79740       -0.54320       -1.44510
N         -2.01010       -0.49780       -2.58100
C         -1.48300       -2.01170        0.50330
C         -1.75700       -2.27600        1.95790
C         -2.79150       -2.63210        0.91980
H          0.92180        1.83000        0.13520
H         -0.27140        1.64180       -1.17400
H         -0.79960        2.04380        0.47460
H          0.57530       -0.47820       -0.15110
H         -2.22350       -0.00590        0.52810
H         -0.77210       -2.66560        0.00550
H         -1.21020       -3.07720        2.44150
H         -1.94530       -1.41960        2.59640
H         -3.68530       -2.01990        0.85900
H         -2.95600       -3.67730        0.68500
