14
gdb 3311	6.45468	1.92775	1.73207	4.0016	57.91	-0.2275	-0.0192	0.2082	723.9071	0.113865	-324.532283	-324.526042	-324.525098	-324.562727	22.878
O         -0.03760       -0.04590       -0.12690
C          0.01400        1.12380        0.16590
C          1.25910        1.96590        0.06110
C          1.21230        3.22600       -0.89670
C          1.51720        4.11410        0.31330
N          0.40450        3.89300        1.26450
C          1.54160        2.93950        1.22400
H         -0.87730        1.66990        0.53930
H          2.10910        1.32170       -0.16930
H          2.01450        3.18690       -1.63500
H          0.26120        3.43030       -1.39430
H          2.09230        5.03090        0.33800
H          0.55960        4.50500        2.06500
H          2.13250        2.74110        2.10930
