13
gdb 5794	6.38683	1.43119	1.26078	1.1261	59.14	-0.2439	-0.0038	0.2401	910.75	0.09688	-398.600091	-398.593774	-398.59283	-398.631176	22.817
C          0.90210        1.09340       -0.05850
O          0.15240        0.15790       -0.83300
C         -0.41200        0.60520        0.40020
C         -0.53940       -0.41890        1.45420
C         -0.11110       -1.70570        1.45000
O         -0.46010       -2.26790        2.64720
C         -1.09090       -1.27570        3.31170
N         -1.17660       -0.16000        2.66540
H          1.80250        0.69910        0.40900
H          0.98550        2.09260       -0.48350
H         -1.26510        1.27650        0.30700
H          0.39610       -2.33460        0.74090
H         -1.45870       -1.50830        4.29860
