24
gdb 6105	4.03905	0.81724	0.78818	1.425	82.24	-0.2607	0.0737	0.3344	1607.0327	0.220796	-351.421383	-351.410571	-351.409627	-351.457555	39.214
C         -0.03270        1.56380       -0.00950
C          0.03660        0.03160        0.05220
C          0.87420       -0.41790        1.25820
C         -1.38060       -0.56960        0.06170
C         -1.44680       -2.09000       -0.11670
C         -2.88130       -2.63610       -0.11700
C         -2.93380       -4.13980       -0.38900
O         -3.56740       -2.30960        1.09190
H          0.96830        2.00650       -0.04910
H         -0.58570        1.90370       -0.89160
H         -0.53920        1.96840        0.87520
H          0.54380       -0.31750       -0.85980
H          0.39800       -0.11000        2.19720
H          1.00380       -1.50380        1.29020
H          1.87260        0.03120        1.23130
H         -1.88920       -0.29850        0.99510
H         -1.96380       -0.10260       -0.74390
H         -0.95990       -2.37590       -1.05910
H         -0.88700       -2.59880        0.68150
H         -3.45440       -2.11490       -0.89490
H         -2.36150       -4.69230        0.36740
H         -3.96740       -4.49530       -0.36060
H         -2.50820       -4.38230       -1.36830
H         -3.12510       -2.77700        1.80970
