19
gdb 2575	2.95335	2.59702	1.72882	1.0756	67.36	-0.2455	0.0848	0.3303	826.4594	0.169954	-310.899911	-310.891559	-310.890614	-310.932271	30.512
C          0.59250       -0.14460        1.40970
C          0.07210       -0.17380       -0.03140
C         -1.34960       -0.69770       -0.13070
C         -1.83980       -1.33020       -1.41060
C         -1.59420       -2.17560       -0.17430
O         -2.30190        0.00310        0.62880
C         -2.63200        1.28170        0.12380
H          1.60470        0.26840        1.45610
H         -0.05730        0.46540        2.04320
H          0.61720       -1.15210        1.83790
H          0.12860        0.83180       -0.46810
H          0.71630       -0.80590       -0.65330
H         -2.87350       -1.15410       -1.68640
H         -1.15540       -1.41770       -2.24780
H         -0.73750       -2.84080       -0.16020
H         -2.46550       -2.53920        0.35760
H         -1.79240        1.98820        0.18690
H         -2.96430        1.23200       -0.92300
H         -3.45110        1.66260        0.73890
