12
gdb 15496	3.60544	2.00272	1.29786	1.2221	57.5	-0.2744	-0.0531	0.2213	848.6012	0.084724	-414.72421	-414.717643	-414.716699	-414.75526	23.271
O         -0.08190       -0.06360       -0.00160
C         -0.04830        1.13940        0.00740
N          1.13890        1.86980        0.00020
C          2.44470        1.34580       -0.01800
N          3.38300        2.20540       -0.02150
C          2.74910        3.52500       -0.00440
C          1.23850        3.28520        0.01010
O          0.31530        4.05250        0.02610
H         -0.92750        1.80220        0.02210
H          2.57010        0.27030       -0.02780
H          3.05780        4.09720        0.87710
H          3.03870        4.11100       -0.88330
