14
gdb 3733	7.04926	1.94697	1.7191	6.1034	57.79	-0.2475	0.0189	0.2664	739.1833	0.115435	-320.774305	-320.767855	-320.766911	-320.805382	22.638
C         -0.03250        1.55940        0.03340
C          0.00550        0.03030       -0.00440
N          0.67900       -0.49270       -1.18750
C          0.14030       -0.76690       -2.41320
N          1.05990       -1.16850       -3.25340
N          2.26160       -1.16070       -2.57260
C          2.00990       -0.75480       -1.35420
H          0.97880        1.97520        0.03500
H         -0.56400        1.95850       -0.83490
H         -0.54620        1.89850        0.93780
H          0.52350       -0.36450        0.87450
H         -1.00800       -0.38130        0.01060
H         -0.91280       -0.66440       -2.62720
H          2.73380       -0.64070       -0.56150
