20
gdb 19860	3.86211	1.99972	1.72407	0.2471	76.7	-0.2397	0.0818	0.3215	849.5564	0.18086	-311.851344	-311.844954	-311.84401	-311.88152	27.023
C          0.01600        1.46780        0.00410
C          1.33490        0.75180        0.07200
C          0.01780       -0.03260        0.08030
C          0.37080       -0.67330       -1.27860
C         -0.37800       -0.30120       -2.57330
C          0.73960        0.21510       -3.51220
C          1.73440        0.95750       -2.58660
C          1.71740        0.12890       -1.28720
H         -0.27700        1.96960        0.92110
H         -0.30110        1.99090       -0.89410
H          2.02610        0.92320        0.88880
H         -0.45470       -0.55400        0.90430
H          0.52240       -1.75130       -1.18840
H         -0.92920       -1.14050       -3.00730
H         -1.10670        0.49480       -2.38410
H          1.24580       -0.63930       -3.97920
H          0.36030        0.84310       -4.32470
H          2.73080        1.04030       -3.03050
H          1.38290        1.97820       -2.39970
H          2.59400       -0.51710       -1.20170
