16
gdb 16927	3.71449	2.19158	1.99094	3.9362	64.85	-0.2354	0.0283	0.2637	745.4609	0.134757	-379.929013	-379.923072	-379.922127	-379.958867	24.277
N         -0.07190        1.27930       -0.08390
C         -0.03890        0.02340       -0.01150
O          1.09800       -0.75740        0.03800
C          0.63690       -2.13640        0.08620
C          0.01920       -2.34090        1.48060
N         -1.20760       -1.49490        1.41810
C         -1.20350       -0.94880        0.03380
C         -0.60270       -2.09070       -0.81940
H          0.87540        1.66400       -0.09060
H          1.46790       -2.78630       -0.17990
H         -0.20720       -3.39620        1.66910
H          0.70110       -1.98780        2.26010
H         -2.03460       -2.06900        1.53870
H         -2.15730       -0.50950       -0.24510
H         -0.36130       -1.81320       -1.84790
H         -1.19980       -3.00570       -0.80070
