17
gdb 14070	3.46761	1.67459	1.39327	2.4559	70.64	-0.2312	-0.0215	0.2097	947.446	0.141377	-363.845041	-363.837072	-363.836128	-363.87747	29.369
C         -0.06260        1.47010       -0.10370
C          0.07910       -0.03250       -0.05150
C          1.43350       -0.68350       -0.12260
C          0.67780       -0.67850        1.18250
N          1.03030        0.01910        2.43610
C          0.52800       -1.13450        3.25300
C          0.11140       -1.83830        1.94380
O         -0.43820       -2.86220        1.65630
H          0.73810        1.95820        0.45910
H         -0.02920        1.83180       -1.13690
H         -1.01210        1.78930        0.33730
H         -0.73700       -0.60070       -0.49140
H          1.54460       -1.63480       -0.63280
H          2.30060       -0.03080       -0.17620
H          2.03450        0.12770        2.53630
H          1.29110       -1.67790        3.82150
H         -0.29490       -0.86890        3.92400
