14
gdb 1162	3.62044	2.08234	1.88533	2.9908	58.2	-0.2771	-0.0513	0.2257	745.6848	0.110848	-324.605178	-324.597169	-324.596225	-324.637255	27.643
C          0.02050        1.60710       -0.05910
C          0.00130        0.07010       -0.06600
C          0.64070       -0.51810        1.22020
C         -1.44630       -0.46510       -0.12470
O         -2.41450        0.21710        0.05920
C          0.70960       -0.45900       -1.23870
N          1.24970       -0.88910       -2.16600
H          1.04510        1.97420        0.03500
H         -0.41360        2.00800       -0.97720
H         -0.57160        1.97160        0.78260
H          0.11960       -0.12640        2.09800
H          0.58190       -1.60990        1.23240
H          1.69350       -0.23230        1.27780
H         -1.51840       -1.55710       -0.31630
