23
gdb 13456	3.24481	1.14742	1.02566	1.2245	82.8	-0.2103	0.0788	0.2891	1308.9438	0.210123	-330.306524	-330.296372	-330.295428	-330.341741	36.57
C          1.72090        0.61280        1.05850
C          0.93500       -0.56270        0.47300
C         -0.33570       -0.87770        1.26680
N         -0.99840       -2.05400        0.71630
C         -2.36090       -2.40860        1.12400
C         -3.15960       -1.61800        2.13940
C         -2.08250       -1.92600       -0.26590
C         -2.58690       -0.60330       -0.80460
H          2.62360        0.81720        0.47490
H          1.12020        1.52940        1.07160
H          2.03170        0.40860        2.08940
H          0.66220       -0.34630       -0.56770
H          1.55760       -1.46380        0.44500
H         -0.06540       -1.11100        2.30510
H         -0.96710        0.02400        1.30670
H         -2.48510       -3.48530        1.25040
H         -3.10150       -0.53790        1.99440
H         -4.21570       -1.90410        2.08710
H         -2.81250       -1.83530        3.15590
H         -2.02220       -2.68930       -1.04280
H         -2.72000        0.16150       -0.03760
H         -1.89960       -0.20290       -1.55840
H         -3.55640       -0.75140       -1.29280
