18
gdb 11380	4.38802	1.24457	1.12234	2.3345	70.05	-0.2337	0.0272	0.2609	1095.5515	0.153635	-384.944593	-384.936317	-384.935373	-384.977434	30.727
O         -0.01720        1.41520       -0.04030
C         -0.03440       -0.00040       -0.05430
C         -1.44370       -0.49390       -0.03860
C         -2.55690        0.24240        0.00760
C         -3.79710       -0.62010        0.05410
C         -3.27030       -2.00500       -0.39970
O         -3.45600       -2.20000       -1.79580
C         -1.76570       -1.97460       -0.02960
H          0.89980        1.70330       -0.04270
H          0.47900       -0.40070       -0.94750
H          0.50390       -0.41890        0.81560
H         -2.57230        1.32410        0.04420
H         -4.21240       -0.65970        1.07130
H         -4.60590       -0.28430       -0.60410
H         -3.80000       -2.83530        0.07340
H         -3.03330       -1.45740       -2.24300
H         -1.18390       -2.56680       -0.74550
H         -1.58480       -2.40780        0.96480
