18
gdb 15777	3.27851	1.3944	1.11018	5.1752	72.63	-0.2412	0.0411	0.2823	1099.7502	0.153205	-343.967397	-343.958823	-343.957879	-344.000969	31.017
C          0.22350        1.57600       -0.00800
C          0.06020        0.04960       -0.07210
C          0.66680       -0.58910        1.19880
C          0.75630       -2.04550        1.12600
N          0.86070       -3.19480        1.07340
N         -1.29280       -0.48710       -0.22680
C         -2.46620        0.25430        0.21870
C         -2.19410        0.04240       -1.23300
H          1.28560        1.83740       -0.03430
H         -0.25330        2.07050       -0.85870
H         -0.19790        1.99380        0.91210
H          0.62430       -0.32160       -0.93590
H          1.67100       -0.18880        1.37660
H          0.05470       -0.31530        2.06620
H         -3.22090       -0.33420        0.73270
H         -2.34780        1.26720        0.59630
H         -1.89230        0.91570       -1.80890
H         -2.74790       -0.70090       -1.80020
