15
gdb 7939	3.78381	1.74236	1.22026	2.4227	62.77	-0.2469	-0.0376	0.2094	938.4609	0.118487	-399.863838	-399.856153	-399.855209	-399.896355	27.266
C         -0.04070        1.42390        0.00880
N         -0.01760       -0.02160        0.00080
C         -1.22770       -0.81270        0.00440
C         -0.72530       -2.26270       -0.00690
O         -1.43460       -3.23190       -0.00790
C          0.79360       -2.22300       -0.01650
C          1.15450       -0.74000       -0.01090
O          2.26910       -0.26360       -0.01550
H          0.99330        1.77100        0.00270
H         -0.56110        1.81460       -0.87430
H         -0.54730        1.80510        0.90390
H         -1.84830       -0.63510        0.89450
H         -1.85980       -0.62530       -0.87560
H          1.21180       -2.73270        0.85710
H          1.20050       -2.72330       -0.90080
