19
gdb 6119	2.83333	1.78626	1.43706	3.8452	71.99	-0.2396	0.0393	0.2789	971.5767	0.163752	-365.102549	-365.093554	-365.09261	-365.135831	33.437
C         -0.14210        1.56810       -0.09750
C          0.01970        0.05790        0.00090
C          1.14600       -0.57520       -0.85180
O          1.44720       -0.57630       -2.01700
N          1.70740       -1.14930        0.25910
C          0.74120       -0.60720        1.23870
C          1.38080        0.34210        2.25120
C         -0.08080       -1.69080        1.93700
H          0.80330        2.09570        0.05540
H         -0.50480        1.83060       -1.09570
H         -0.86550        1.94320        0.63390
H         -0.93710       -0.43530       -0.19920
H          2.51790       -1.74250        0.36780
H          2.00990        1.08950        1.76240
H          0.61540        0.86180        2.83660
H          2.00870       -0.21790        2.95320
H          0.54290       -2.27760        2.62090
H         -0.88780       -1.24400        2.52720
H         -0.52370       -2.37570        1.20820
