16
gdb 19537	4.43343	1.73939	1.6356	0.7645	77.14	-0.2231	0.0375	0.2607	844.5931	0.131403	-309.387969	-309.38146	-309.380515	-309.418319	26.429
C         -0.08140       -1.21680        0.00280
C         -0.04650       -0.01210        0.00560
C          0.01870        1.39430        0.00880
C         -0.73720        2.46710        0.78730
C          0.56550        3.12860        1.22970
C          1.21530        2.45160       -0.00620
C          0.52850        3.13580       -1.21790
C         -0.76030        2.47160       -0.74030
H         -0.11690       -2.27750        0.00050
H         -1.64430        2.31920        1.35860
H          0.60920        4.22260        1.28120
H          0.92820        2.69890        2.16690
H          2.27420        2.20560       -0.02290
H          0.57070        4.23020       -1.26420
H          0.86270        2.71170       -2.16810
H         -1.68430        2.32700       -1.28480
