14
gdb 6075	5.20795	1.04309	0.874	16.1685	60.02	-0.1702	-0.0313	0.1389	1216.6476	0.104005	-452.987506	-452.978057	-452.977113	-453.023537	31.711
N         -0.11940        1.27250        0.29330
C         -0.00930       -0.02000       -0.03430
N          1.19060       -0.57800       -0.21770
H          1.23630       -1.55440       -0.46410
H          2.04530       -0.05800       -0.11910
O         -1.10110       -0.66490       -0.15570
C         -1.13090       -2.13230       -0.52180
C         -2.62910       -2.65610       -0.59860
O         -3.50590       -1.82830       -0.35970
O         -2.58710       -3.85550       -0.90020
H          0.67220        1.87840        0.41490
H         -1.04950        1.63940        0.41860
H         -0.64150       -2.21850       -1.49520
H         -0.57780       -2.65780        0.26080
