13
gdb 3436	5.11402	2.87284	2.06683	1.9443	54.73	-0.2316	0.015	0.2466	617.9992	0.103861	-340.625597	-340.619915	-340.618971	-340.654742	22.127
N          0.02200        1.33020        0.12980
C         -0.00960       -0.03750        0.01160
N         -1.08440       -0.72830       -0.09130
C         -0.73640       -2.15460       -0.02780
C          0.78440       -2.23480        0.01410
O          1.40920       -1.63760       -1.12750
C          1.25940       -0.84510        0.06470
H          0.82020        1.79830       -0.27180
H         -0.85990        1.78320       -0.06640
H         -1.17480       -2.61050        0.86980
H         -1.14810       -2.68390       -0.89500
H          1.31970       -3.06700        0.46270
H          2.17480       -0.50020        0.53680
