14
gdb 12908	3.43486	1.83032	1.51468	2.0069	63.9	-0.2329	0.0427	0.2755	848.2582	0.105136	-382.446903	-382.439525	-382.438581	-382.478252	28.033
O         -0.04190        1.44060       -0.01770
C         -0.01340        0.06630       -0.03780
C          0.58200       -0.79770       -1.15180
O         -0.52020       -1.74300       -1.02660
C         -1.13720       -0.92450       -0.04530
C         -0.26230       -0.79750        1.20280
C          0.62790       -1.82150        1.65960
C          1.39080       -2.67290        2.03450
H          0.69960        1.75590        0.51170
H          0.55160       -0.29820       -2.12550
H          1.55520       -1.26720       -0.97910
H         -2.21770       -0.84590       -0.03140
H         -0.76350       -0.21740        1.97560
H          2.05080       -3.43500        2.36750
