16
gdb 4757	6.70186	1.29523	1.10038	3.5713	70.61	-0.1828	0.0367	0.2195	1078.4152	0.12966	-379.946711	-379.938127	-379.937183	-379.980323	29.809
C         -0.01180        1.40400       -0.00560
N          0.03240       -0.04800       -0.03230
C          0.57930       -0.63780        0.94080
N          0.72620       -2.00120        1.11030
C          1.40690       -2.26960        2.29990
C          1.72550       -3.65020        2.75040
C          1.65330       -1.07680        2.85680
O          1.15650       -0.05820        2.05630
H          0.97640        1.85830        0.15530
H         -0.39790        1.76510       -0.96270
H         -0.67320        1.78580        0.78580
H          0.43010       -2.66230        0.41560
H          2.36100       -4.17290        2.02550
H          2.25440       -3.62260        3.70530
H          0.81640       -4.24890        2.88200
H          2.13760       -0.78420        3.77140
