8
gdb 724	6.76114	6.45723	3.30285	2.5272	40.74	-0.2631	-0.1005	0.1627	369.079	0.051491	-296.296482	-296.292265	-296.291321	-296.323929	14.143
C         -0.00230        1.28470        0.00970
N          1.11850        2.01410        0.00270
N          2.27420        1.37280       -0.01240
N          2.30780        0.05150       -0.02010
C          1.14260       -0.60450       -0.01230
N         -0.06100       -0.04240        0.00280
H         -0.93580        1.84110        0.02210
H          1.20380       -1.68960       -0.01890
