18
gdb 16904	3.8729	1.83168	1.42474	2.3848	67.46	-0.2541	0.0854	0.3395	908.9295	0.154758	-384.931615	-384.924425	-384.92348	-384.962836	27.927
C          0.04340        1.53630        0.06570
C          0.01130        0.01710        0.00420
C          0.68420       -0.54560       -1.25850
C          0.95720       -2.03440       -1.13510
O          2.13030       -2.40130       -0.39560
C          0.85970       -2.68330        0.18220
C          0.47190       -1.84770        1.38280
O          0.66000       -0.46540        1.17590
H          1.07830        1.88980        0.10300
H         -0.44010        1.96850       -0.81570
H         -0.47360        1.89470        0.95960
H         -1.03890       -0.32660        0.01830
H          0.04250       -0.35750       -2.12650
H          1.63460       -0.02890       -1.43620
H          0.80020       -2.63740       -2.02910
H          0.60220       -3.74170        0.24800
H         -0.58170       -2.06970        1.63170
H          1.08610       -2.11700        2.24870
