17
gdb 19190	2.92411	2.3339	1.82245	2.1493	68.69	-0.2362	0.0013	0.2375	807.2747	0.143501	-363.846484	-363.839529	-363.838585	-363.877311	27.101
C          0.03030        1.46670       -0.14130
N          0.00320        0.01260        0.02730
C         -1.24900       -0.54180        0.67630
C         -0.95750       -2.04750        0.62550
C          0.54970       -2.02480        1.06410
C          0.72660       -0.51200        1.25120
C         -0.56580       -0.08650        1.98760
O         -0.84400        0.62670        2.90680
H          1.03690        1.76320       -0.45000
H         -0.66130        1.73760       -0.94410
H         -0.24060        2.03910        0.76020
H         -2.21220       -0.16210        0.34000
H         -1.59550       -2.61450        1.30800
H         -1.08500       -2.44080       -0.38500
H          0.73750       -2.57940        1.98680
H          1.21020       -2.40630        0.28290
H          1.70890       -0.10310        1.48100
