17
gdb 18979	4.27375	2.30639	1.87375	0.3428	67.76	-0.213	0.0916	0.3046	747.8758	0.145201	-363.787662	-363.78189	-363.780946	-363.817182	24.162
C         -0.05120        1.62520        0.02990
C          1.43590        1.21720        0.00210
C          1.11350        0.15360        1.09150
O          1.98130       -0.93020        1.25300
C          2.01880       -1.76440        0.10110
C          1.99370       -0.92340       -1.17490
N          1.05660        0.21220       -1.08260
C         -0.01620        0.08370        0.00690
H         -0.42430        2.10340        0.93730
H         -0.41780        2.08660       -0.88650
H          2.32010        1.84930       -0.10050
H          0.85060        0.51480        2.09060
H          2.92080       -2.37820        0.17710
H          1.14900       -2.43930        0.11580
H          2.98540       -0.50980       -1.39440
H          1.70690       -1.55040       -2.02740
H         -0.85630       -0.60660       -0.08380
