15
gdb 14720	10.4954	0.57422	0.55	6.3474	76.34	-0.281	-0.0368	0.2442	1866.1608	0.117652	-362.647848	-362.638824	-362.637879	-362.682543	30.304
O         -0.04190        1.44090        0.01060
C          0.03240        0.02750        0.00210
C         -1.39630       -0.50300        0.01280
C         -1.43330       -2.04510        0.00460
C         -2.78440       -2.57830        0.01460
C         -3.91510       -3.00420        0.02310
C         -5.19080       -3.48970        0.03280
N         -6.27660       -3.90320        0.04110
H          0.85280        1.79330        0.00390
H          0.56020       -0.34390       -0.89240
H          0.57720       -0.35370        0.88200
H         -1.91280       -0.12380        0.89980
H         -1.92970       -0.11400       -0.85980
H         -0.90810       -2.42780       -0.88070
H         -0.89120       -2.43760        0.87540
