16
gdb 5760	6.00521	1.44502	1.28232	3.2875	71.89	-0.2058	0.0375	0.2433	958.1749	0.1334	-342.814524	-342.807684	-342.806739	-342.846302	25.939
C          0.88840        1.47420        0.31400
C          0.94090        0.28230       -0.59370
C         -0.26720        0.49210        0.29880
C         -0.46890       -0.39760        1.45540
N          0.47600       -0.92700        2.20570
C         -0.17670       -1.67890        3.15570
C         -1.53120       -1.60710        2.98280
N         -1.70620       -0.78210        1.88880
H          1.51250        1.45590        1.19970
H          0.72330        2.45440       -0.11960
H          0.81280        0.43140       -1.66010
H          1.60000       -0.53080       -0.31310
H         -1.18180        0.82060       -0.18540
H          0.36810       -2.22810        3.90860
H         -2.36380       -2.04390        3.50800
H         -2.58680       -0.51270        1.48380
