17
gdb 14844	2.90748	1.69731	1.17926	4.8787	69.43	-0.2299	0.0165	0.2464	1026.9887	0.143288	-360.013718	-360.005472	-360.004527	-360.046769	29.482
C          0.18300        1.38260        0.26540
N         -0.04480       -0.02580       -0.02920
C          0.52630       -0.47010       -1.27120
C          2.06850       -0.73620       -1.34760
N          1.79910       -2.17620       -1.13170
C          0.38380       -2.01100       -1.52180
C         -0.57560       -2.76280       -0.71170
N         -1.32780       -3.36740       -0.07610
H          1.24550        1.67910        0.30130
H         -0.30780        1.99720       -0.49800
H         -0.26970        1.62600        1.23020
H          0.27420       -0.60920        0.73750
H          0.13070        0.15180       -2.07800
H          2.49090       -0.48870       -2.33130
H          2.68730       -0.27710       -0.56930
H          2.33290       -2.83100       -1.69170
H          0.17070       -2.21430       -2.58090
