17
gdb 14547	4.70141	1.52552	1.39981	3.4231	69.18	-0.2419	-0.0233	0.2186	925.5878	0.141551	-363.826855	-363.819229	-363.818284	-363.858656	28.552
C         -0.06250        1.60160       -0.00820
C          0.02800        0.09510       -0.05510
C         -1.07950       -0.62280        0.66050
O         -2.07670       -0.09300        1.08060
C          0.57900       -0.70740       -1.18920
C          1.72680        0.00120       -1.90360
C          2.40030        0.08890       -0.51120
N          1.28620       -0.69160        0.14370
H          0.52850        2.09380       -0.78140
H         -1.10870        1.89040       -0.13290
H          0.26300        1.97590        0.96800
H         -0.89800       -1.71340        0.77490
H          0.07330       -1.59700       -1.55560
H          2.26060       -0.66210       -2.58610
H          1.48940        0.92880       -2.43150
H          3.32600       -0.48390       -0.43430
H          2.56160        1.08150       -0.08320
