17
gdb 10704	2.42105	2.1198	1.38942	1.7717	64.74	-0.2566	-0.025	0.2316	933.0787	0.141273	-400.991468	-400.982971	-400.982027	-401.024513	30.944
C          0.52840        0.95550       -0.92920
C          0.00380        0.05670        0.16570
O          0.54430       -0.02740        1.25000
C         -1.24690       -0.74970       -0.11150
C         -2.17930       -0.31960       -1.22160
O         -2.73510        0.96090       -0.96640
C         -1.17050       -2.18990        0.29440
N         -1.94230       -1.24660        1.09490
H          1.43210        1.45970       -0.58670
H          0.74770        0.37710       -1.83370
H         -0.24180        1.68790       -1.19240
H         -1.65060       -0.23850       -2.17630
H         -2.96270       -1.08130       -1.33770
H         -3.19430        0.89380       -0.12070
H         -1.75100       -2.92180       -0.26120
H         -0.22010       -2.54120        0.68560
H         -1.36900       -0.96980        1.89340
