14
gdb 9090	6.4733	0.98641	0.89906	5.1081	61.52	-0.2764	0.0079	0.2843	1202.623	0.104064	-419.651054	-419.642388	-419.641444	-419.684779	29.968
O         -0.32550        1.10120       -0.48520
C         -0.01000       -0.25250       -0.18250
C          0.90140       -0.85570       -1.26790
O          0.23860       -0.84080       -2.52520
C          0.40750        0.24630       -3.31220
O         -0.17870        0.38750       -4.34050
C          0.60430       -0.40470        1.13510
C          1.16010       -0.49920        2.19660
H          0.38090        1.65580       -0.13540
H         -0.96520       -0.78920       -0.21680
H          1.84440       -0.29530       -1.31110
H          1.12690       -1.90010       -1.04090
H          1.15480        0.95410       -2.90950
H          1.62780       -0.59000        3.14650
