13
gdb 5214	9.22048	0.9995	0.90686	1.4911	71.96	-0.2258	-0.0118	0.2139	1218.5021	0.095849	-361.471902	-361.464487	-361.463543	-361.505713	25.266
C         -0.04450        1.46320        0.03750
C          0.00020        0.01030        0.02060
C          0.03080       -1.19490        0.00820
C          0.06740       -2.60730       -0.00650
C          1.11620       -3.42890       -0.29280
O          0.69420       -4.71930       -0.18310
C         -0.60960       -4.61500        0.16980
N         -1.04580       -3.40860        0.29180
H          0.66500        1.87540        0.76370
H          0.20360        1.88120       -0.94450
H         -1.04380        1.82030        0.30860
H          2.14340       -3.27070       -0.57000
H         -1.14720       -5.53930        0.31210
