18
gdb 4158	4.16994	1.21937	0.99217	1.0612	72.7	-0.2292	0.0041	0.2333	1187.1414	0.152975	-381.056525	-381.047845	-381.046901	-381.089938	31.478
C         -0.00010        1.53360        0.00540
C         -0.27020        0.04550       -0.22890
C          0.70980       -0.56990       -1.22230
N          2.12630       -0.66690       -0.73340
C          2.21040       -2.11320       -1.09540
C          0.72680       -2.07730       -1.38260
N         -0.20300       -2.90100       -1.61170
O          0.28830       -4.22020       -1.64070
H          1.01720        1.68340        0.38070
H         -0.10820        2.11000       -0.92080
H         -0.69490        1.95120        0.74000
H         -0.19350       -0.50320        0.71620
H         -1.28760       -0.10830       -0.60810
H          0.62270       -0.05880       -2.19410
H          2.77460       -0.08460       -1.25040
H          2.81530       -2.34800       -1.98180
H          2.53210       -2.76530       -0.27610
H         -0.51120       -4.73110       -1.80650
