17
gdb 3566	4.98019	2.80404	2.60945	0.243	66.22	-0.2325	0.0846	0.3171	620.5174	0.150727	-272.526778	-272.521262	-272.520318	-272.555607	23.181
C          0.01510        1.46830       -0.06530
C          1.33400        0.75740        0.04720
C          0.01340       -0.02930        0.05560
C          0.41320       -0.73290       -1.26260
C          0.01550       -0.08940       -2.62620
C          1.36050        0.71190       -2.63480
C          1.74990        0.06350       -1.27120
H         -0.29140        1.99230        0.83500
H         -0.29010        1.97060       -0.97780
H          2.01070        0.96470        0.86820
H         -0.48320       -0.52110        0.88420
H          0.41100       -1.82170       -1.20540
H         -0.05920       -0.81580       -3.43930
H         -0.90090        0.50710       -2.62110
H          2.02710        0.42720       -3.45260
H          1.27220        1.80180       -2.63500
H          2.70890       -0.45260       -1.22010
