13
gdb 10011	3.4256	1.36361	0.98907	4.4305	66.33	-0.2744	-0.0567	0.2177	1106.4082	0.091959	-398.582726	-398.574118	-398.573174	-398.616468	28.943
C          0.07460        1.51070       -0.14540
N          0.04530        0.06970       -0.28220
C         -1.03030       -0.57380       -0.12960
O         -1.05930       -1.94810       -0.25760
C          0.09210       -2.65890       -0.01220
O          0.14880       -3.82390       -0.24590
C         -2.33900       -0.06010        0.14980
C         -3.42730        0.39610        0.37990
H          0.77900        1.77520        0.65090
H          0.46830        1.94100       -1.07240
H         -0.89910        1.96390        0.07510
H          0.88550       -2.03590        0.42020
H         -4.39400        0.78830        0.58430
