18
gdb 6995	2.72858	1.92007	1.4859	2.1982	68.06	-0.2443	-0.0264	0.2179	929.9759	0.1507	-384.953708	-384.944641	-384.943697	-384.987189	33.025
C         -0.65420        1.30420       -0.04990
C          0.10960       -0.01080       -0.02190
C          1.50980       -0.08740       -0.71870
C          1.92820       -0.99260        0.43900
O          2.67100       -1.92800        0.55930
C          0.75840       -0.52800        1.32190
C          1.13060        0.56540        2.32340
O          0.07980       -1.57330        1.98040
H         -0.03870        2.14030        0.29650
H         -0.98430        1.53680       -1.06770
H         -1.54530        1.25600        0.58440
H         -0.52160       -0.82310       -0.39460
H          1.58240       -0.51370       -1.72100
H          2.03440        0.87430       -0.70130
H          1.66380        1.39870        1.85600
H          0.22390        0.95510        2.79540
H          1.76860        0.14120        3.10370
H          0.66280       -2.34290        1.96090
