20
gdb 10064	2.89584	1.12538	0.84674	1.3409	80.99	-0.247	0.0466	0.2936	1418.2286	0.173723	-348.977223	-348.96663	-348.965685	-349.014078	35.726
C          0.81050        1.09820       -0.41080
C          0.29780       -0.30890       -0.09880
C         -1.22220       -0.35420        0.11730
O         -1.83000        0.07320       -1.09530
C         -3.21920        0.29520       -0.99450
C         -1.67480       -1.69180        0.52390
C         -2.03710       -2.79340        0.85010
C         -2.47320       -4.12500        1.24570
H          1.89110        1.08920       -0.58220
H          0.32270        1.49720       -1.30290
H          0.61090        1.78580        0.41910
H          0.53900       -0.99600       -0.91710
H          0.77810       -0.70480        0.80230
H         -1.48540        0.36050        0.91870
H         -3.76050       -0.62180       -0.72440
H         -3.45220        1.06980       -0.24660
H         -3.56000        0.63710       -1.97470
H         -3.33910       -4.08180        1.91550
H         -2.75690       -4.72370        0.37320
H         -1.67510       -4.66320        1.76910
