19
gdb 10914	3.15133	1.92736	1.52031	1.8355	71.33	-0.2254	0.0644	0.2898	920.9001	0.164274	-365.022767	-365.014192	-365.013247	-365.055195	32.248
C         -0.26010        1.54060        0.06690
C          0.05910        0.05720        0.02340
C          1.14380       -0.47770       -0.96840
O          1.92570        0.44360       -1.70210
C          1.86490       -1.04470        0.24780
C          2.46220       -2.41750        0.33230
C          2.14660        0.04650        1.20060
N          0.78810       -0.53610        1.20650
H          0.63700        2.16260        0.03040
H         -0.88830        1.81910       -0.78670
H         -0.81310        1.77930        0.98110
H         -0.86870       -0.51310       -0.08570
H          0.74990       -1.26590       -1.62300
H          1.42060        0.72380       -2.47210
H          3.39450       -2.46850       -0.24210
H          2.68830       -2.67730        1.37040
H          1.77910       -3.17630       -0.06510
H          2.70950       -0.21580        2.09160
H          2.31160        1.05830        0.84580
