12
gdb 20414	4.93919	2.16681	1.53596	5.1746	55.49	-0.2636	-0.0422	0.2214	746.8897	0.085735	-414.606324	-414.600522	-414.599577	-414.63704	21.211
C          0.03810        1.37690       -0.12210
C          1.51970        1.85450        0.09230
C          2.11680        0.61010        0.66470
N          3.22260        0.14570        1.15070
O          2.94000       -1.17710        1.44690
N          1.61890       -1.52360        1.12950
C          1.14560       -0.41470        0.65490
O         -0.04610       -0.05890        0.16690
H         -0.65260        1.88210        0.55730
H         -0.30530        1.51600       -1.14830
H          1.99210        2.14160       -0.85130
H          1.57220        2.71180        0.76730
