19
gdb 13779	3.55904	1.34881	1.08385	2.8986	74.45	-0.2387	-0.0293	0.2094	1126.8824	0.163027	-365.046267	-365.037299	-365.036355	-365.079835	32.584
C         -0.12170        1.59730        0.24210
C          0.12000        0.09360        0.09130
C          0.88170       -0.48430        1.28360
N         -1.19670       -0.55730       -0.00540
C         -1.80810       -0.70490       -1.29800
C         -1.34620       -1.92190       -0.53610
C         -0.21360       -2.70120       -1.09890
O         -0.14060       -3.90450       -1.03620
H          0.82960        2.13310        0.31440
H         -0.67130        1.99530       -0.61660
H         -0.70760        1.79980        1.14380
H          0.71610       -0.06080       -0.82330
H          0.30530       -0.34720        2.20370
H          1.07060       -1.55530        1.16020
H          1.84700        0.01700        1.40020
H         -2.87410       -0.50650       -1.37050
H         -1.22800       -0.42910       -2.18010
H         -2.07750       -2.53510       -0.01570
H          0.57460       -2.10480       -1.60830
