17
gdb 14111	3.86798	1.74492	1.36856	2.6607	69.34	-0.2389	-0.0171	0.2218	927.4506	0.141816	-363.846124	-363.838331	-363.837387	-363.878553	28.713
C          0.57560        0.49640       -0.99210
C         -0.16550        0.34780        0.32040
O          0.23730        0.83100        1.35840
C         -1.43270       -0.43200        0.31070
C         -2.34870       -0.64130        1.52460
C         -2.60950       -2.10970        1.05400
C         -1.69010       -1.86500       -0.14990
N         -2.11340       -0.73660       -0.94910
H          1.53480        0.98260       -0.81110
H          0.72690       -0.47500       -1.47300
H         -0.02280        1.09220       -1.68850
H         -1.79730       -0.58820        2.46340
H         -3.21130        0.03000        1.58090
H         -2.21350       -2.84780        1.75440
H         -3.63930       -2.38330        0.80200
H         -0.99740       -2.57070       -0.59520
H         -3.11540       -0.56010       -0.89290
