16
gdb 13608	4.61393	1.32206	1.17825	2.5381	62.96	-0.2446	0.0026	0.2472	1040.0606	0.129528	-420.895193	-420.887047	-420.886102	-420.928081	29.334
C          0.18180        1.37040        0.06440
O          0.20010       -0.06330        0.01050
C          0.41430       -0.59410       -1.20320
O          0.57330        0.08240       -2.20520
C          0.46260       -2.06550       -1.17220
C         -0.09760       -2.80920       -2.39270
C          1.37710       -2.73320       -2.22050
O          2.18720       -1.98320       -3.04790
H          1.14050        1.77970       -0.26300
H         -0.60880        1.76960       -0.57530
H         -0.00570        1.62300        1.10780
H          0.36470       -2.52180       -0.19600
H         -0.61430       -3.74250       -2.19960
H         -0.53700       -2.18140       -3.16060
H          1.89530       -3.62160       -1.87430
H          1.76640       -1.11260       -3.14930
