14
gdb 18823	4.37724	2.28664	1.90134	4.3867	59.57	-0.2628	0.008	0.2708	704.5152	0.109737	-382.545167	-382.539703	-382.538759	-382.574615	22.136
O         -0.02380        0.01450        0.18650
C          0.01750        1.19190       -0.00870
O         -1.11240        1.97240       -0.09250
C         -0.71940        3.28620       -0.45700
C          0.29600        4.03540        0.38300
C          1.13770        3.04460        1.18120
C          1.20870        2.13340       -0.10300
C          0.68970        3.33810       -0.92890
H         -1.51430        3.83400       -0.94380
H          0.17690        5.09220        0.59000
H          2.12620        3.45290        1.39940
H          0.71310        2.60870        2.09090
H          2.14870        1.64190       -0.33240
H          1.04890        3.71120       -1.87810
