14
gdb 11216	4.62379	1.36137	1.20517	2.4794	58.05	-0.2683	-0.0427	0.2256	963.2626	0.106954	-419.728054	-419.720764	-419.71982	-419.760779	25.333
O         -0.30770        0.12740        0.08830
C         -0.07790        1.30660        0.12950
C          1.30630        1.91510        0.01090
C          1.35850        2.93470       -1.15720
O          1.11470        4.22600       -0.59160
C          1.29610        4.22650        0.75940
O          1.19850        5.21640        1.41950
C          1.62780        2.80990        1.22110
H         -0.89810        2.05180        0.25850
H          2.01910        1.10170       -0.13050
H          2.34290        2.93270       -1.63720
H          0.59880        2.75650       -1.92320
H          1.06520        2.57410        2.12700
H          2.69020        2.77000        1.48030
