13
gdb 604	6.6252	2.92578	2.32381	0.9125	56.55	-0.2293	0.0338	0.2631	568.893	0.106781	-249.285024	-249.278639	-249.277695	-249.314555	23.195
C         -0.13090        1.47780       -0.13000
N          0.01480        0.03520        0.02120
C          1.34260       -0.51780       -0.16500
C          0.73280       -0.47110        1.20690
C          1.27150        0.41130        2.20540
C          1.69160        1.13490        3.07000
H          0.74000        2.05280        0.21680
H         -0.29750        1.69610       -1.18920
H         -1.00810        1.81050        0.43270
H          1.40030       -1.46530       -0.69440
H          2.16670        0.16920       -0.35070
H          0.30260       -1.38770        1.60460
H          2.07300        1.77100        3.82990
