17
gdb 4170	3.56415	1.61784	1.23925	0.9086	73.57	-0.2286	0.0067	0.2353	993.0919	0.141329	-363.797806	-363.789934	-363.78899	-363.830227	29.605
O         -0.10650        1.28710        0.15390
N         -0.01400       -0.11410        0.28610
C         -1.12430       -0.66790        0.02840
C         -2.51590       -0.21890       -0.38200
C         -2.94620       -1.72580       -0.38300
C         -1.51020       -2.10670        0.03410
C         -0.66910       -3.27020       -0.43020
C         -1.06010       -3.15960        1.01660
H          0.78770        1.56900        0.37400
H         -3.01720        0.41570        0.35380
H         -2.55640        0.28530       -1.35130
H         -3.71620       -1.97460        0.35100
H         -3.25390       -2.10550       -1.36020
H         -1.15680       -4.02540       -1.03840
H          0.35820       -3.05520       -0.70350
H         -0.30040       -2.86890        1.73410
H         -1.81530       -3.83910        1.39870
