13
gdb 2085	5.03048	2.70264	1.87228	5.7583	50.52	-0.2791	0.0416	0.3207	652.3257	0.103543	-381.635659	-381.62967	-381.628726	-381.665914	21.338
O          0.00790        0.07950        0.51620
C         -0.01410        1.14910       -0.01340
O         -1.19030        1.75590       -0.28860
C         -1.27210        3.00840       -0.98560
C         -0.06090        3.87370       -0.69680
C          1.16570        3.04220       -1.01850
O          1.13710        1.78780       -0.32060
H         -1.35710        2.80450       -2.06110
H         -2.20590        3.46610       -0.65120
H         -0.08160        4.77900       -1.31120
H         -0.05090        4.17500        0.35600
H          1.22750        2.84080       -2.09600
H          2.09500        3.52540       -0.70870
