22
gdb 19148	3.06146	1.53645	1.24346	0.1441	81.85	-0.2425	0.0906	0.3331	1099.8258	0.200265	-313.044068	-313.035321	-313.034377	-313.077554	33.697
C          0.10420        1.60640        0.07470
C         -0.02640        0.09380       -0.13340
C         -1.43020       -0.50110       -0.03950
C         -2.51070        0.19740        0.75910
C         -2.57340        0.19080       -0.74970
C         -1.50910       -2.01000       -0.02560
C         -0.49460       -2.91370       -0.68350
C         -0.61820       -2.88640        0.82170
H          1.14370        1.91400       -0.07490
H         -0.50710        2.17770       -0.63090
H         -0.18160        1.90500        1.08760
H          0.38740       -0.15880       -1.11820
H          0.62010       -0.40320        0.60120
H         -3.21220       -0.42430        1.30570
H         -2.28190        1.13550        1.25090
H         -2.37920        1.12320       -1.26850
H         -3.31950       -0.43100       -1.23360
H         -2.53520       -2.36350       -0.09770
H         -0.85520       -3.78480       -1.21970
H          0.39200       -2.46710       -1.11870
H          0.18540       -2.42360        1.38400
H         -1.06810       -3.73720        1.32180
