15
gdb 12722	3.01385	2.28445	1.7071	3.275	60.53	-0.243	0.0067	0.2497	794.6119	0.119793	-399.803911	-399.796808	-399.795864	-399.835185	26.618
N         -0.07740        1.43830       -0.26870
C         -0.04690        0.02820       -0.03980
C          0.41100       -0.85920       -1.24170
C         -0.86150       -1.74880       -1.08890
C         -1.27730       -0.92410        0.13920
O         -0.67780       -1.45410        1.36450
C          0.38700       -0.57980        1.30510
O          1.24970       -0.42870        2.11010
H         -0.18770        1.95650        0.59750
H          0.79140        1.74780       -0.69260
H          0.41340       -0.27870       -2.16670
H          1.37970       -1.34800       -1.12510
H         -1.55340       -1.64590       -1.92750
H         -0.70220       -2.80880       -0.88460
H         -2.30590       -0.60940        0.30480
