15
gdb 9861	5.57538	0.93774	0.86155	5.7128	82.06	-0.2636	-0.0362	0.2274	1304.5891	0.118245	-325.510396	-325.502255	-325.50131	-325.5432	29.341
C         -0.04500        1.51330        0.00300
C          0.00460       -0.00880       -0.00310
C          1.34960       -0.69690       -0.22600
C          0.72860       -0.72260        1.13630
C         -1.15250       -0.65510       -0.54270
C         -2.14170       -1.17940       -1.00350
C         -3.25140       -1.77980       -1.52050
N         -4.19730       -2.29220       -1.96130
H          0.87710        1.91700        0.43100
H         -0.15200        1.90630       -1.01220
H         -0.88690        1.87580        0.60010
H          1.35580       -1.61260       -0.80460
H          2.19630       -0.04220       -0.40020
H          1.14320       -0.08590        1.90990
H          0.30920       -1.65600        1.49160
