17
gdb 10101	2.16389	1.68843	0.99356	3.159	73.15	-0.2658	0.0168	0.2826	1172.886	0.139321	-363.825955	-363.816601	-363.815656	-363.860684	32.548
C          0.52260        1.51860        0.21660
C          0.21520        0.02640        0.08050
C         -1.28840       -0.26540       -0.00600
O         -1.77250        0.39060       -1.19130
C         -3.11210        0.50600       -1.31550
N         -3.59840        1.07340       -2.33140
C         -1.57270       -1.70120       -0.03990
C         -1.80070       -2.88060       -0.06550
H          1.60230        1.68410        0.26960
H          0.13150        2.07610       -0.63740
H          0.07660        1.93430        1.12730
H          0.68850       -0.38600       -0.81650
H          0.61010       -0.53170        0.93580
H         -1.78820        0.17740        0.86890
H         -3.67200        0.07340       -0.47620
H         -4.61440        1.08540       -2.26830
H         -2.00450       -3.92300       -0.09150
