12
gdb 1455	8.49953	1.55421	1.32492	4.8191	49.43	-0.2648	-0.019	0.2458	847.1845	0.089124	-397.707881	-397.700373	-397.699429	-397.740254	24.238
C         -0.08690        1.37690        0.13670
O          0.02820       -0.04120       -0.03710
C          0.66770       -0.41770       -1.16890
O          1.12100        0.32300       -1.99360
N          0.69640       -1.81330       -1.18900
C          1.25490       -2.62640       -2.16740
O          1.81050       -2.26560       -3.16660
H          0.90160        1.84020        0.18290
H         -0.64780        1.82140       -0.68890
H         -0.61820        1.51490        1.07810
H          0.26020       -2.26880       -0.40100
H          1.11460       -3.69160       -1.89350
