13
gdb 15328	3.29787	1.32513	1.00664	3.5567	67.98	-0.2669	-0.0124	0.2545	1126.6236	0.093308	-361.420896	-361.412525	-361.411581	-361.45633	27.792
C          0.07710        1.49870        0.03210
C          0.04290        0.04590        0.05400
C          0.00070       -1.15710        0.07800
C         -0.02810       -2.58890        0.09020
O         -0.62990       -3.24820        1.21660
C         -1.29460       -3.36320       -0.03460
C         -2.56760       -2.68960       -0.17100
N         -3.59510       -2.17970       -0.30970
H          0.87960        1.86350       -0.61750
H         -0.86940        1.90780       -0.33630
H          0.24940        1.90050        1.03620
H          0.86680       -3.09090       -0.27650
H         -1.25830       -4.34950       -0.49440
