13
gdb 16717	6.66754	1.52005	1.3653	1.3196	67.39	-0.2445	-0.0348	0.2096	874.0635	0.095632	-361.418745	-361.41235	-361.411406	-361.449163	24.674
C          0.09310       -1.13020        0.05250
C          0.00220        0.06750        0.02640
C         -0.09140        1.48460       -0.00550
N         -1.17230        2.17050       -0.01220
C         -0.77100        3.55230        0.00640
C          0.02390        3.99840        1.22080
C          0.75220        3.53340       -0.00270
O          1.10100        2.16030       -0.04110
H          0.16480       -2.19000        0.07450
H         -1.39950        4.25290       -0.52880
H          0.05240        5.06520        1.41240
H          0.01430        3.36530        2.10160
H          1.42290        4.15740       -0.57820
