15
gdb 15937	3.5744	1.96181	1.54551	2.6047	61.66	-0.2379	-0.0419	0.196	826.4844	0.118907	-399.751379	-399.744403	-399.743458	-399.782845	25.649
O         -0.77550        1.14400        0.72040
C          0.14860        0.87820       -0.00810
C          1.38220        1.72300       -0.14260
C          1.66850        2.77320        0.95190
O          1.79940        3.84130       -0.01960
C          1.51660        2.96000       -1.10620
C          2.77220        2.27230       -1.68580
N          2.51740        1.08370       -0.82420
H          0.14950       -0.01870       -0.66500
H          0.81580        2.94130        1.61730
H          2.58400        2.61780        1.53520
H          0.74240        3.33590       -1.77750
H          2.73870        2.02700       -2.75310
H          3.68370        2.84070       -1.47260
H          3.28320        0.79400       -0.22470
