14
gdb 16866	4.35349	1.87335	1.42505	2.9421	56.54	-0.2652	0.0066	0.2717	823.5368	0.108239	-419.691096	-419.684689	-419.683745	-419.72196	24.077
O         -0.14330       -0.09350        0.25110
C         -0.03680        1.05400       -0.08160
C         -1.13810        2.09230        0.11020
C         -1.20890        3.09530       -1.02890
O         -0.67430        4.39340       -0.76840
C          0.07640        3.50760       -1.60500
C          1.29800        2.87370       -0.96850
O          1.10860        1.47650       -0.67230
H         -2.07180        1.54590        0.24550
H         -0.93600        2.63750        1.04010
H         -2.10280        3.08790       -1.64820
H          0.14590        3.81080       -2.64690
H          2.16280        2.89750       -1.63350
H          1.54790        3.41560       -0.04950
