14
gdb 4553	4.01248	1.77393	1.23973	2.0403	59.91	-0.1833	0.0539	0.2372	914.6483	0.107866	-415.899952	-415.892238	-415.891294	-415.93192	28.101
C         -0.07490        1.48240        0.02360
N          0.01040        0.03910       -0.02690
C          0.02280       -0.76400       -1.18160
C          0.11490       -2.04030       -0.70930
O          0.16130       -3.18170       -1.43150
N          0.16020       -2.07460        0.66520
C          0.09470       -0.81050        1.01650
O          0.10580       -0.33880        2.27720
H          0.77480        1.94010       -0.49370
H         -1.00100        1.83320       -0.44360
H         -0.06440        1.79740        1.06700
H         -0.03350       -0.34710       -2.17050
H          0.22490       -3.90110       -0.79250
H          0.17020       -1.11060        2.85250
