14
gdb 16980	4.20909	2.35308	2.18392	0.5831	61.75	-0.246	-0.0201	0.2259	672.9355	0.106773	-382.368954	-382.363285	-382.36234	-382.398267	23.619
C          0.00540        1.56130       -0.10290
O          1.47970        1.54840        0.10590
C          1.25140        0.33370        0.92470
C          1.30680       -1.26830        0.90070
O         -0.18350       -1.12780        1.06160
C          0.06650        0.02590        0.10430
C          0.60810       -0.72300       -1.11650
C          1.44510       -1.60560       -0.57200
H         -0.49760        2.13370        0.68210
H         -0.25110        1.92850       -1.10020
H          1.05530        0.65780        1.95040
H          1.76100       -1.87760        1.68140
H          0.33860       -0.53160       -2.14480
H          2.07360       -2.36620       -1.00970
