16
gdb 293	4.73128	2.64326	2.42091	0.1664	52.62	-0.2564	0.0643	0.3208	632.2372	0.140737	-308.772292	-308.764288	-308.763343	-308.804403	28.004
C          0.10360        1.50690        0.18020
C         -0.03130       -0.00160       -0.00970
O         -1.40360       -0.39750       -0.05620
C          0.68990       -0.49730       -1.28250
C          0.83930       -2.01600       -1.30730
O         -0.00700       -0.02610       -2.43770
H          1.14690        1.79070        0.35270
H         -0.24070        2.03020       -0.71880
H         -0.49140        1.83940        1.03510
H          0.38720       -0.52330        0.85950
H         -1.83970        0.20990       -0.66440
H          1.67920       -0.02670       -1.33410
H          1.26910       -2.34250       -2.25820
H          1.48900       -2.36140       -0.49650
H         -0.13930       -2.49120       -1.17660
H         -0.78340       -0.58920       -2.53340
