11
gdb 21403	3.96449	2.06241	1.35665	0.4888	56.64	-0.2741	-0.0856	0.1885	805.0577	0.073172	-430.722352	-430.716084	-430.71514	-430.753099	23.001
N         -0.05950        1.27570        0.37570
C         -0.01630        0.09130       -0.04950
N         -1.15570       -0.68920       -0.14310
C         -1.20010       -1.98770       -0.59470
O         -2.21220       -2.64550       -0.66520
C          0.14150       -2.48330       -0.98430
N          1.23010       -1.81920       -0.92380
O          1.16240       -0.50870       -0.45000
H          0.86420        1.70210        0.37860
H         -2.01880       -0.25000        0.15010
H          0.22010       -3.49910       -1.35580
