17
gdb 10928	5.61948	1.37221	1.26836	1.384	74.8	-0.2494	0.0441	0.2935	994.0996	0.141507	-326.657226	-326.649433	-326.648489	-326.689024	29.869
C          0.04560        1.56030        0.02970
C         -0.04220        0.06520        0.07810
C         -1.33880       -0.76060        0.00500
C         -0.68980       -1.82140        0.97550
C         -0.55020       -3.18490        0.49870
C         -0.41720       -4.30000        0.06630
C          0.59030       -0.94840        0.99250
N          1.10180       -0.73420       -0.35150
H          1.06220        1.88890        0.26010
H         -0.20950        1.93460       -0.96900
H         -0.64430        2.02070        0.74510
H         -2.20000       -0.26980        0.46470
H         -1.62170       -1.12190       -0.98800
H         -1.19430       -1.80570        1.94610
H         -0.30400       -5.29080       -0.29850
H          1.26580       -0.83880        1.83370
H          0.86560       -1.49580       -0.98670
