12
gdb 366	10.04823	2.20536	1.85033	2.8141	43.25	-0.2705	0.0032	0.2737	640.0833	0.094874	-343.531666	-343.524693	-343.523749	-343.562703	22.716
C         -0.00730        1.35800       -0.02840
O          0.02840       -0.07840       -0.04840
C          0.65050       -0.62700       -1.09510
O          1.16730       -0.00730       -1.99530
C          0.64500       -2.14410       -1.04260
O          1.30510       -2.67970       -2.15360
H          1.00640        1.76520       -0.01220
H         -0.52920        1.73950       -0.90920
H         -0.54320        1.62690        0.88120
H          1.12130       -2.45760       -0.10150
H         -0.40080       -2.48280       -0.99360
H          1.59760       -1.91750       -2.67530
