7
gdb 3827	10.19357	2.07678	1.72528	1.3668	43.86	-0.3473	-0.1177	0.2295	614.0591	0.031734	-370.291993	-370.286954	-370.28601	-370.320977	16.954
N          0.04620       -1.13570       -0.00450
C         -0.00460        0.01820        0.00270
C         -0.04880        1.43730        0.01140
N         -1.14810        2.14560        0.02980
O         -0.72480        3.41450        0.03150
N          0.68290        3.43200        0.01330
N          1.07840        2.24450        0.00130
