14
gdb 5550	3.23944	2.00984	1.30694	1.6221	60.43	-0.1937	0.0261	0.2198	898.1374	0.106648	-419.681377	-419.673802	-419.672858	-419.713532	27.309
C          0.07180        1.21130       -0.26250
O         -0.18170        0.09990        0.60820
C         -1.27290       -0.62330        0.30670
C         -1.39720       -1.94100       -0.01030
O         -0.41450       -2.86710       -0.17520
C         -2.80130       -2.19410       -0.13680
C         -3.41620       -1.00800        0.10790
O         -2.50420       -0.03500        0.39030
H          1.00830        1.65890        0.07420
H          0.17010        0.87520       -1.30150
H         -0.73360        1.94900       -0.19370
H          0.42560       -2.44240        0.03310
H         -3.26840       -3.13450       -0.38110
H         -4.44720       -0.69740        0.11670
