15
gdb 1644	5.10911	1.76774	1.34556	0.1453	57.93	-0.2389	-0.0809	0.158	890.3706	0.121452	-345.695868	-345.687346	-345.686402	-345.729675	28.418
C          0.03990        1.52710       -0.11310
C         -0.02690        0.01460        0.07630
C          0.79510       -0.47840        1.24560
O          1.44690        0.23890        1.96980
C          0.77730       -2.00740        1.50270
C          1.59960       -2.49230        2.67070
O          0.12740       -2.72850        0.78180
H          1.06830        1.85620       -0.28480
H         -0.56830        1.83440       -0.96780
H         -0.32350        2.05040        0.77540
H         -1.05620       -0.33700        0.22490
H          0.31080       -0.52780       -0.81650
H          1.26360       -2.00710        3.59270
H          1.51440       -3.57560        2.75670
H          2.64620       -2.19940        2.53960
