15
gdb 17370	4.37954	1.6416	1.45915	3.1909	60.63	-0.2374	0.0252	0.2626	863.4613	0.119461	-399.791741	-399.784655	-399.783711	-399.82343	26.803
N          0.59890        0.32830       -0.83930
C         -0.01370        0.02180        0.33870
O          0.25170        0.56660        1.39400
C         -1.09950       -1.04640        0.23660
C         -2.32850       -0.82140       -0.73190
C         -1.96800       -2.14060       -1.42380
O         -0.62740       -2.01130       -1.92560
C         -0.80950       -2.34910       -0.54090
H          1.37300        0.97140       -0.81250
H          0.43600       -0.24020       -1.65680
H         -1.43620       -1.25380        1.25240
H         -3.27840       -0.85390       -0.19520
H         -2.29630        0.06310       -1.37110
H         -2.60800       -2.85060       -1.93340
H         -0.32440       -3.25250       -0.19110
