20
gdb 7203	3.24831	0.93435	0.76119	0.8363	68.75	-0.2567	0.0709	0.3275	1501.6881	0.174242	-423.253592	-423.243235	-423.242291	-423.289611	35.519
C         -0.37060        1.19040        0.72200
O         -0.21530       -0.20380        0.83670
C          1.04050       -0.65930        0.39000
C          1.11060       -2.17900        0.55910
O          2.30310       -2.67140       -0.04750
C          0.97640       -2.60920        2.01920
C          0.91160       -4.12090        2.19190
O          0.84600       -4.39570        3.58440
H         -0.27860        1.52640       -0.32290
H         -1.36970        1.44010        1.08710
H          0.37470        1.73490        1.32340
H          1.19950       -0.41120       -0.67150
H          1.85600       -0.18180        0.96570
H          0.29420       -2.61780       -0.02750
H          3.04650       -2.37750        0.49130
H          1.83150       -2.22340        2.59350
H          0.07930       -2.14990        2.44500
H          0.02610       -4.51340        1.66530
H          1.79630       -4.58300        1.73050
H          0.82810       -5.35020        3.69940
