12
gdb 2959	5.08691	2.1923	1.60544	3.3752	58.9	-0.26	-0.0436	0.2164	732.3158	0.088877	-323.330261	-323.32343	-323.322486	-323.361262	23.909
O         -0.16570        0.01770       -0.21550
C         -0.11770        1.19060        0.08450
C          1.10620        1.97140        0.02400
C          2.13100        2.59510       -0.05880
N         -1.20210        1.90260        0.58560
C         -1.79560        3.06580       -0.04840
C         -2.53720        1.76360        0.05370
H          3.04270        3.13670       -0.13100
H         -2.04620        3.88960        0.61350
H         -1.41530        3.35600       -1.02430
H         -2.64730        1.16310       -0.84500
H         -3.32980        1.65190        0.78750
