14
gdb 5699	4.81756	2.10548	1.49545	0.8704	63.19	-0.1923	0.0178	0.2101	791.7899	0.109772	-382.54932	-382.543257	-382.542313	-382.579705	23.022
C          0.05270        1.38820       -0.11000
C          1.55640        1.81650        0.06960
C          2.04630        0.54890        0.67700
C          1.12480       -0.43210        0.61450
O         -0.06540       -0.05840        0.06940
C          1.72260       -1.62460        1.11580
C          2.99650       -1.24060        1.43990
O          3.22060        0.08210        1.17340
H         -0.57290        1.86470        0.65180
H         -0.34470        1.62850       -1.09760
H          2.03750        2.05470       -0.88840
H          1.63460        2.70420        0.70590
H          1.30090       -2.60980        1.22970
H          3.82910       -1.77180        1.87020
