18
gdb 8539	3.44512	2.2376	1.6432	1.5744	72.39	-0.2095	0.0774	0.2869	838.9252	0.153443	-343.864878	-343.85753	-343.856586	-343.895992	28.72
C         -0.64630        1.43010       -0.42700
N         -0.42830        0.02130       -0.12110
C         -1.23550       -0.58680        0.97600
C         -0.12780       -1.64890        1.24580
N         -0.03000       -1.42750        2.71810
C         -0.33390       -0.05550        2.17860
C         -0.46840        1.10840        3.11970
C          0.58890       -0.31420        0.91750
H          0.18180        1.79170       -1.04600
H         -1.56480        1.52780       -1.01560
H         -0.73150        2.09450        0.44670
H         -2.31990       -0.71830        0.92710
H          0.01040       -2.61190        0.75650
H         -0.85790       -1.80860        3.18570
H          0.43030        1.18780        3.74020
H         -0.61070        2.05420        2.59300
H         -1.32490        0.96320        3.78860
H          1.65830       -0.12980        0.80610
