15
gdb 2414	4.91313	2.40084	2.00986	2.1728	57.06	-0.2502	0.0761	0.3263	670.7171	0.125628	-345.591597	-345.585249	-345.584305	-345.621344	24.863
O         -0.02650        1.46350       -0.03480
C          0.03670        0.05950        0.02190
C         -0.02150       -0.65790        1.41480
C         -1.49250       -0.16170        1.51800
C         -1.33810       -0.65760        0.04620
C         -0.60540       -1.88230        0.64140
O          0.20110       -2.61110       -0.25190
H          0.87200        1.80350        0.00510
H          0.76740       -0.34220       -0.68370
H          0.73600       -0.66610        2.20130
H         -2.16260       -0.73960        2.16080
H         -1.62520        0.91000        1.64400
H         -2.09330       -0.66230       -0.74010
H         -1.23860       -2.54420        1.24550
H          0.71710       -3.24240        0.25860
