17
gdb 4022	2.15473	1.8581	1.27521	0.6098	75.65	-0.2379	-0.0287	0.2092	1032.237	0.138845	-363.794454	-363.785066	-363.784122	-363.828924	33.969
C         -0.00380        1.51960       -0.07940
C          0.01950       -0.01430        0.03670
C          0.73200       -0.47030        1.32170
C         -1.39320       -0.57540       -0.01830
N         -1.86700       -1.37790       -0.90780
O         -0.92770       -1.71590       -1.88010
C         -2.31210       -0.19310        1.00690
C         -3.03670        0.16700        1.89870
H          1.01740        1.91310       -0.05950
H         -0.47400        1.84070       -1.01360
H         -0.55750        1.96840        0.75110
H          0.55470       -0.42140       -0.82260
H          0.20940       -0.10590        2.21150
H          0.78410       -1.56140        1.38170
H          1.75410       -0.07900        1.34320
H         -1.43360       -2.30500       -2.45010
H         -3.69250        0.47210        2.67640
