16
gdb 5589	3.32763	1.88561	1.22067	0.2293	67.96	-0.1776	0.0536	0.2312	964.0583	0.131622	-379.934642	-379.926472	-379.925527	-379.967377	29.679
C          0.01270        1.37430        0.08330
O          0.02950       -0.03590        0.02680
C          0.62300       -0.57590       -1.07720
C          0.71120       -1.94290       -1.26380
N          0.28740       -3.05340       -0.50170
N          1.36110       -2.13260       -2.46580
C          1.67900       -0.93350       -3.03080
C          1.23270        0.06810       -2.19010
H          1.02910        1.79190        0.08830
H         -0.53950        1.80730       -0.76230
H         -0.48950        1.64490        1.01450
H         -0.71760       -3.03590       -0.35420
H          0.71170       -3.04930        0.42120
H          1.55460       -3.04570       -2.83880
H          2.19240       -0.87560       -3.97650
H          1.33600        1.12700       -2.36200
