16
gdb 16678	2.93139	2.26294	1.8258	3.06	63.6	-0.2311	-0.0194	0.2118	794.1263	0.13096	-383.73368	-383.7269	-383.725956	-383.764516	26.332
C         -0.16970        1.63130        0.04250
C          0.02680        0.12510       -0.00620
C          0.89530       -0.59550       -1.07790
C          2.27550        0.08140       -1.02060
C          2.37880        0.09160        0.52310
O          3.23540        0.53280        1.23590
C          1.06290       -0.62080        0.88260
O          1.08460       -1.68980       -0.11780
H          0.77320        2.18440        0.00530
H         -0.78950        1.96610       -0.79580
H         -0.68170        1.91930        0.96620
H         -0.92480       -0.40640        0.07630
H          0.50200       -0.91370       -2.04280
H          3.05150       -0.54190       -1.47090
H          2.33670        1.08760       -1.44350
H          0.89580       -0.93730        1.91010
