18
gdb 6507	2.86366	1.84311	1.39181	5.1168	72.84	-0.2456	0.0316	0.2772	956.071	0.152229	-343.986168	-343.976972	-343.976028	-344.019238	33.893
C          0.01870        1.50390        0.02290
C          0.01550       -0.01180       -0.00030
C         -1.25570       -0.61820       -0.56410
C          1.31430       -0.73190       -0.24650
C          0.74130       -0.73790        1.16070
N          1.45450       -0.05510        2.21100
C          0.14920       -1.97800        1.62270
N         -0.34890       -2.95370        1.99490
H          0.92710        1.91270        0.47150
H         -0.05550        1.89760       -0.99670
H         -0.83810        1.88880        0.58780
H         -1.39190       -0.30830       -1.60640
H         -1.23890       -1.70990       -0.53600
H         -2.13300       -0.28460        0.00100
H          1.29870       -1.66300       -0.80140
H          2.21820       -0.14590       -0.38550
H          2.22660        0.49050        1.85310
H          0.84840        0.55250        2.75100
