15
gdb 9715	3.73788	1.6006	1.56261	3.879	66.99	-0.2714	-0.017	0.2545	877.899	0.119126	-362.683109	-362.675619	-362.674675	-362.714916	27.818
O         -0.22580        1.27620       -0.23670
C          0.04000       -0.09740        0.05220
C         -1.32020       -0.84400        0.08980
C         -1.45160       -1.53650       -1.28730
C         -0.03980       -1.53720       -1.81260
C          0.78120       -0.79000       -1.07890
C          0.77310       -0.18810        1.33400
N          1.37050       -0.24380        2.32210
H          0.61450        1.72430       -0.38820
H         -1.30460       -1.58980        0.88730
H         -2.11730       -0.13120        0.30610
H         -1.86670       -2.54620       -1.20070
H         -2.11450       -0.98620       -1.96700
H          0.24870       -2.07190       -2.71110
H          1.83580       -0.61700       -1.25880
