15
gdb 16513	3.86436	2.4648	1.79057	3.9289	65.45	-0.2171	-0.0546	0.1625	740.529	0.117209	-362.524239	-362.517672	-362.516728	-362.554409	26.084
C          0.09560        1.47890        0.07290
C         -0.04210       -0.01370       -0.08090
C          0.80910       -0.77340       -1.13680
N          0.45770       -2.21590       -0.90250
C         -0.58150       -2.08890       -0.19120
O         -0.56230       -2.32520        1.19290
C         -0.66850       -0.82990        1.19170
C         -1.35150       -0.73210       -0.09330
H          1.10780        1.74810        0.39370
H         -0.09710        1.98520       -0.88050
H         -0.60890        1.88110        0.80740
H          0.60810       -0.39000       -2.14960
H          1.88740       -0.70800       -0.95650
H         -0.84450       -0.38710        2.16500
H         -2.35700       -0.46950       -0.39510
