18
gdb 19362	4.07111	1.68682	1.48091	1.9156	70.58	-0.2258	0.0683	0.2941	924.5092	0.153006	-347.732178	-347.724775	-347.723831	-347.763797	28.94
C          0.18370        1.53530        0.07270
C         -0.04560        0.02820       -0.10060
C         -1.48610       -0.36770       -0.01710
O         -1.89690       -1.60680       -0.62170
C         -2.58510       -0.39570       -0.98110
C         -3.62560       -0.04710        0.12820
C         -3.59150       -1.05200        1.24810
C         -2.49120       -0.02910        1.14380
H          1.24810        1.77420       -0.00590
H         -0.34860        2.10610       -0.69480
H         -0.16240        1.88580        1.05020
H          0.33700       -0.30680       -1.07090
H          0.51800       -0.52240        0.66490
H         -2.63740       -0.14710       -2.03480
H         -4.41910        0.67630       -0.00270
H         -4.30570       -0.86720        2.04440
H         -3.38950       -2.09450        1.03830
H         -2.29610        0.70950        1.90990
