11
gdb 20511	9.61252	1.0225	0.92956	3.9096	64.92	-0.2761	-0.0773	0.1988	1164.414	0.070635	-393.501407	-393.494155	-393.493211	-393.53562	23.952
C         -0.05200        1.45610        0.01580
C          0.00140        0.00580       -0.00620
C          0.04910       -1.19760       -0.02630
C          0.08160       -2.60440       -0.03770
N          1.04580       -3.34100       -0.53490
O          0.65030       -4.61060       -0.32480
N         -0.59340       -4.60130        0.32010
N         -0.93000       -3.40800        0.49000
H          0.82860        1.87150        0.51700
H         -0.08300        1.86100       -1.00130
H         -0.94260        1.80560        0.54780
