17
gdb 6110	2.98043	1.81031	1.48095	2.9161	64.92	-0.2483	0.0206	0.2689	917.7384	0.140052	-401.025094	-401.01627	-401.015326	-401.058052	32.235
C          0.01260        1.50410        0.01550
C         -0.03630       -0.01990        0.03560
C         -1.42970       -0.56570       -0.25670
N          1.02650       -0.65410       -0.79130
C          1.78860       -1.08610        0.25730
O          2.90090       -1.53870        0.35920
C          0.69920       -0.66870        1.27060
O          1.12530        0.19680        2.28840
H          1.01290        1.86790        0.25660
H         -0.27410        1.88380       -0.97150
H         -0.68220        1.91730        0.75230
H         -1.77360       -0.25190       -1.24840
H         -1.43670       -1.65910       -0.22630
H         -2.14980       -0.19300        0.47860
H          1.26350       -0.53900       -1.76740
H          0.13820       -1.52000        1.67900
H          2.05670        0.00600        2.45120
