15
gdb 10557	3.06349	1.40762	1.07996	2.6959	61.96	-0.2792	0.0001	0.2792	1072.9696	0.117167	-399.777901	-399.769441	-399.768497	-399.811468	29.374
O         -0.14430        1.45280       -0.05910
C         -0.05550        0.05170       -0.25000
C         -1.35520       -0.54780        0.28270
C         -1.41270       -2.05290        0.12820
C         -2.66770       -2.74870       -0.22360
O         -1.64710       -2.54990       -1.19650
C         -0.41560       -2.80560        0.87690
N          0.38090       -3.37720        1.48920
H          0.66960        1.85310       -0.37840
H          0.05670       -0.20890       -1.31320
H          0.80190       -0.37720        0.29110
H         -1.46660       -0.28260        1.33990
H         -2.19890       -0.11230       -0.26040
H         -2.81900       -3.77780        0.09500
H         -3.56760       -2.15010       -0.35270
