15
gdb 11347	4.79674	1.34692	1.06562	5.0919	67.53	-0.239	-0.0228	0.2162	1051.2001	0.1192	-399.815051	-399.807465	-399.806521	-399.847308	27.281
O          0.00400        1.40450        0.00790
C         -0.02560       -0.00710        0.00240
C         -1.44190       -0.46950        0.01230
C         -2.56170        0.25650        0.02310
C         -3.71820       -0.64420        0.02960
N         -4.94300       -0.32430        0.04010
O         -3.24560       -1.94160        0.02220
C         -1.81990       -1.92790        0.01120
H          0.92260        1.68810        0.00030
H          0.48200       -0.42330       -0.88640
H          0.49680       -0.43060        0.87900
H         -2.65060        1.33110        0.02690
H         -5.52980       -1.16020        0.04230
H         -1.45840       -2.45990       -0.88010
H         -1.44460       -2.46470        0.89390
