11
gdb 917	5.76839	2.94566	1.94992	2.6467	57.	-0.2342	-0.0702	0.164	600.6297	0.080481	-339.450073	-339.444769	-339.443825	-339.47919	19.72
N         -0.06120        1.28490        0.31790
C         -0.02340        0.07040       -0.04070
O          1.16650       -0.56310       -0.37850
C          1.14000       -1.86540       -0.75420
C          0.00170       -2.57140       -0.81300
N         -1.22710       -2.00460       -0.48950
C         -1.22110       -0.76990       -0.13070
H          0.87100        1.70090        0.31890
H          2.12730       -2.24130       -0.99090
H          0.00260       -3.61020       -1.11550
H         -2.15560       -0.28070        0.13220
