22
gdb 15429	4.69862	0.8594	0.80944	1.6354	79.66	-0.256	0.0957	0.3517	1541.4748	0.198615	-350.199878	-350.190052	-350.189107	-350.235248	34.968
C         -0.41810        1.46440       -0.11780
C         -0.22710       -0.04590       -0.27410
C          1.11190       -0.41690       -0.92780
C          1.28200       -1.91140       -1.05880
O          0.50500       -2.57850       -2.06460
C          1.93470       -2.60970       -2.17930
C          2.54790       -1.95210       -3.39270
C          2.33360       -2.78890       -4.66040
H          0.36990        1.90240        0.50550
H         -0.38870        1.97030       -1.08930
H         -1.37990        1.69800        0.34920
H         -0.29610       -0.52960        0.70920
H         -1.03860       -0.46590       -0.87960
H          1.18130        0.05930       -1.91090
H          1.94070       -0.02260       -0.32310
H          1.27850       -2.43760       -0.09970
H          2.35930       -3.59260       -1.95390
H          2.12150       -0.95510       -3.53420
H          3.62220       -1.81820       -3.20910
H          1.26520       -2.92180       -4.85480
H          2.78300       -2.30580       -5.53290
H          2.78200       -3.78340       -4.56000
