15
gdb 7750	3.54239	1.92032	1.28332	4.6679	64.24	-0.2241	0.0042	0.2283	916.0417	0.119912	-399.858699	-399.851333	-399.850389	-399.890443	27.051
C          0.03440        1.51040        0.05880
C         -0.07360        0.01750        0.03090
C         -1.20040       -0.69510        0.06520
C         -1.08900       -2.18810        0.07200
O          0.08520       -2.65400       -0.62940
C          1.24840       -1.97960       -0.52070
O          2.29640       -2.47040       -0.84960
N          1.14160       -0.68010       -0.04560
H          0.63950        1.84210        0.91150
H          0.51600        1.89080       -0.85010
H         -0.95280        1.96700        0.14420
H         -2.17300       -0.22410        0.10150
H         -1.05110       -2.59200        1.09570
H         -1.92890       -2.66590       -0.43850
H          2.00690       -0.16620       -0.10030
