15
gdb 3557	4.99153	2.91736	2.6079	1.4278	59.68	-0.2445	0.079	0.3235	586.4221	0.126757	-308.462382	-308.456812	-308.455868	-308.49132	22.571
O         -0.05840        1.47250       -0.09830
C         -0.02280        0.06320       -0.09610
C         -1.36360       -0.64000       -0.11300
C         -1.78940       -0.79260       -1.57820
C         -0.71390       -0.13200       -2.43950
C          0.30020       -0.70600       -1.41500
C         -0.79650       -1.75360       -0.97220
H          0.84420        1.79940       -0.02730
H          0.59550       -0.32160        0.72710
H         -2.08040       -0.72280        0.69350
H         -2.82620       -0.98170       -1.82520
H         -0.62420       -0.62610       -3.41060
H         -0.73230        0.95520       -2.56190
H          1.32930       -0.92260       -1.69600
H         -0.79460       -2.82410       -0.83480
