14
gdb 3757	4.00095	3.37567	1.85959	3.2814	59.79	-0.2043	0.0395	0.2438	664.5971	0.115625	-320.774349	-320.767547	-320.766603	-320.80501	24.464
C         -0.04390        1.41190       -0.01340
N         -0.00930       -0.03090        0.02210
N          0.03640       -0.74720       -1.13370
C          0.05120       -2.01310       -0.73560
C          0.03810       -2.13540        0.66890
C          0.00470       -0.82790        1.12240
N         -0.09570       -0.28010        2.40720
H          0.95170        1.85090        0.12870
H         -0.42120        1.71140       -0.99100
H         -0.71100        1.78230        0.76990
H          0.07580       -2.80230       -1.47340
H          0.05530       -3.03120        1.26840
H         -0.08860       -1.00200        3.11550
H          0.63560        0.39050        2.61680
