18
gdb 8198	2.77402	2.43435	1.67573	1.2434	72.42	-0.2246	0.0211	0.2458	842.7106	0.153436	-347.802579	-347.794924	-347.793979	-347.83376	30.337
C          0.00760        1.49840        0.03800
C         -0.03440       -0.00950        0.06720
C          1.24130       -0.78480       -0.21610
C          0.63880       -0.80650        1.17390
O          1.28370       -0.16100        2.23030
C         -0.27340       -1.95790        1.45610
C         -1.34490       -1.93650        0.66210
C         -1.34880       -0.72900       -0.25320
H          0.93400        1.86900        0.48480
H         -0.05590        1.88170       -0.98710
H         -0.82660        1.92510        0.60630
H          1.20720       -1.69070       -0.81390
H          2.13370       -0.17880       -0.34730
H          2.14840       -0.56710        2.34760
H         -0.04270       -2.70950        2.20290
H         -2.12260       -2.69110        0.63250
H         -2.21670       -0.08310       -0.05930
H         -1.41230       -1.01700       -1.31090
