15
gdb 14144	4.37044	1.67909	1.45626	1.834	62.33	-0.2295	0.0205	0.25	862.1944	0.11955	-399.78861	-399.781586	-399.780642	-399.819928	26.335
O         -0.11740        1.35000       -0.18930
C         -0.03390       -0.03910       -0.05680
C         -0.38780       -0.68310        1.26350
C         -1.34860       -0.74650        0.09910
C         -2.67800        0.01370        0.06170
O         -3.54600       -0.89010       -0.66990
C         -2.78150       -1.96880       -0.95960
N         -1.56850       -2.00250       -0.58640
H          0.61540        1.74390        0.29550
H          0.71570       -0.52930       -0.67570
H          0.12060       -1.59910        1.54230
H         -0.65220       -0.02080        2.08260
H         -3.11960        0.18710        1.04750
H         -2.61420        0.96070       -0.47920
H         -3.29280       -2.74820       -1.51260
