17
gdb 14339	4.56833	1.78166	1.52497	1.2155	68.48	-0.2362	0.0275	0.2638	877.6177	0.143626	-363.881134	-363.874096	-363.873151	-363.91258	26.594
C         -0.14170        1.49260       -0.01800
C         -0.00980        0.00960       -0.07850
N         -0.20450       -0.72660       -1.09830
C          0.03800       -2.10870       -0.67700
C          1.44110       -2.66300       -1.05320
C          1.92380       -2.41690        0.41270
C          0.49200       -1.98120        0.80930
O          0.34980       -0.58020        1.10440
H          0.81500        1.94770        0.25760
H         -0.46290        1.87290       -0.98690
H         -0.86820        1.77540        0.75020
H         -0.81630       -2.74220       -0.92900
H          1.43200       -3.71710       -1.34100
H          1.95160       -2.09020       -1.82970
H          2.29460       -3.30080        0.93690
H          2.65380       -1.61300        0.53030
H         -0.00440       -2.55030        1.59640
