19
gdb 4036	3.65169	1.11496	1.08903	1.0096	71.98	-0.2441	0.0125	0.2567	1205.7672	0.161531	-402.153837	-402.143618	-402.142674	-402.189457	35.347
C         -0.09710        1.43110       -0.11610
O         -0.21150        0.02920       -0.18960
C          0.62860       -0.58440       -1.16330
C          2.07750       -0.70710       -0.66950
C          0.02540       -1.94010       -1.45980
C         -0.28780       -2.87660       -0.32680
N         -0.16250       -2.19260       -2.69750
O         -0.67330       -3.48580       -2.89590
H          0.89340        1.75990        0.23100
H         -0.29600        1.90540       -1.08960
H         -0.84540        1.77560        0.60210
H          0.60830       -0.00390       -2.09620
H          2.12470       -1.30320        0.24670
H          2.69500       -1.18820       -1.43360
H          2.50670        0.27680       -0.45970
H         -0.34020       -2.32990        0.61510
H         -1.23700       -3.38440       -0.51180
H          0.47860       -3.65630       -0.24460
H         -0.80010       -3.50690       -3.85020
