20
gdb 17960	2.58478	2.25686	1.41254	0.1534	81.62	-0.2339	0.025	0.2589	950.6919	0.179883	-311.874747	-311.867294	-311.86635	-311.90628	29.543
C         -0.09950        1.70490        0.19550
C          1.27300        2.40870        0.22490
C          2.11890        2.36300       -1.02080
C          1.81180        2.01350       -2.27140
C          0.49190        1.53650       -2.83420
C          0.22230        0.03500       -2.60410
C          0.11860       -0.45590       -1.18360
C         -0.01620        0.21300       -0.03710
H         -0.57470        1.87480        1.16820
H         -0.75050        2.18890       -0.53490
H          1.12370        3.46130        0.51060
H          1.86680        1.97780        1.04360
H          3.14860        2.67410       -0.84500
H          2.62370        2.04950       -2.99620
H         -0.34330        2.12740       -2.45370
H          0.49940        1.70480       -3.91710
H         -0.69700       -0.24470       -3.14120
H          1.01980       -0.54030       -3.09520
H          0.16090       -1.54240       -1.10710
H         -0.04850       -0.38670        0.87130
