16
gdb 6670	7.04507	0.75262	0.70962	3.6149	63.35	-0.2616	-0.0276	0.2339	1523.2379	0.126949	-420.92046	-420.9111	-420.910156	-420.95688	30.488
C         -0.18360        1.42360        0.18840
C          0.05450       -0.05730       -0.03030
O          1.16630       -0.52910       -0.11340
C         -1.18480       -0.93630       -0.14140
C         -0.83540       -2.38980       -0.43440
O         -2.04120       -3.15140       -0.57280
C         -2.26690       -4.15340        0.29720
O         -3.25000       -4.82950        0.26420
H          0.77060        1.93920        0.30080
H         -0.73160        1.84660       -0.66130
H         -0.80250        1.58770        1.07740
H         -1.75750       -0.86050        0.79250
H         -1.84550       -0.53950       -0.92210
H         -0.28190       -2.47420       -1.37250
H         -0.20530       -2.80530        0.35940
H         -1.44620       -4.27450        1.03210
