13
gdb 9471	3.25995	1.7531	1.56526	4.3324	56.68	-0.2542	-0.0526	0.2016	837.2513	0.094379	-435.75696	-435.749508	-435.748564	-435.788835	26.748
O          0.02890        1.47730        0.07660
C         -0.01270        0.10230        0.00690
C         -1.42480       -0.57470       -0.09680
N         -0.94710       -1.25510       -1.30180
C          0.23710       -0.57020       -1.41440
O          1.08870       -0.51210       -2.25200
C          0.86310       -0.52720        1.06380
O          1.55010        0.15160        1.78770
H          0.69090        1.68770        0.75690
H         -1.72110       -1.24600        0.71550
H         -2.19840        0.17820       -0.26990
H         -1.44560       -1.80360       -1.98730
H          0.84430       -1.63260        1.12690
