16
gdb 11086	6.89511	1.054	1.03885	0.3417	77.97	-0.2538	0.0346	0.2884	1139.5681	0.128822	-309.389938	-309.381872	-309.380927	-309.422438	30.383
C         -0.72150       -0.72480       -0.86780
C         -0.27130        0.25950       -0.34280
C          0.28560        1.42590        0.30780
C          0.15000        1.56080        1.85750
C          1.60940        2.12650        1.90940
C          1.83430        1.52410        0.48140
C          1.68150        3.57500        1.95900
C          1.72950        4.77670        1.98580
H         -1.12360       -1.58830       -1.33680
H         -0.08610        2.33720       -0.17150
H         -0.64670        2.20280        2.23390
H          0.09110        0.58140        2.33640
H          2.23990        1.69710        2.69250
H          2.28960        0.53350        0.54020
H          2.37840        2.13690       -0.23760
H          1.77960        5.83680        2.01880
