19
gdb 17534	3.80577	1.81432	1.59625	1.0957	75.71	-0.2286	0.0896	0.3182	891.501	0.165734	-327.859563	-327.852139	-327.851195	-327.890813	29.378
C         -0.11520        1.51170       -0.05150
N          0.09490        0.07730        0.07520
C          1.37700       -0.55360       -0.14340
C          2.57510        0.27440        0.37630
C          1.90020        0.28750        1.76330
C          2.58650        0.04620        3.07380
C          1.88450        1.36070        2.81460
C          0.73210       -0.52910        1.22530
H          0.69870        2.13820        0.33620
H         -0.26210        1.75100       -1.10960
H         -1.03130        1.77850        0.48500
H          1.44000       -1.36100       -0.86510
H          3.50470       -0.30070        0.37030
H          2.75220        1.23770       -0.11300
H          2.12720       -0.64970        3.76950
H          3.67180        0.03970        3.09090
H          2.49940        2.24040        2.65180
H          0.95540        1.55860        3.33970
H          0.20140       -1.30670        1.76670
