16
gdb 8099	2.83397	1.99288	1.47175	4.1135	66.11	-0.2359	-0.0074	0.2286	888.3792	0.128667	-383.727546	-383.71968	-383.718735	-383.75948	29.578
C         -0.04080        1.55630        0.03430
C          0.08590        0.05010        0.15510
C          1.34480       -0.75570       -0.22420
C          2.56830       -0.10460        0.32640
O          3.66070        0.11570       -0.11930
C          1.99940       -0.02450        1.76870
C          0.73980       -0.70890        1.24280
O          0.15590       -1.69360        2.00260
H          0.84880        2.07460        0.40050
H         -0.18320        1.84450       -1.01220
H         -0.90150        1.92240        0.60450
H         -0.79250       -0.47850       -0.22340
H          1.30960       -1.49460       -1.01620
H          2.57220       -0.69230        2.41900
H          1.89940        0.95220        2.25030
H         -0.72830       -1.87180        1.66580
