14
gdb 4190	4.96122	1.64538	1.3335	1.7672	68.84	-0.228	-0.0398	0.1882	881.553	0.108648	-378.656024	-378.649541	-378.648597	-378.686504	25.33
O         -0.08280        1.32130       -0.00640
N          0.02770       -0.07480        0.03380
C         -1.11970       -0.63870       -0.00130
C         -2.47450       -0.06880       -0.03470
C         -3.38780       -1.05050        0.04770
C         -2.72670       -2.39130        0.09000
N         -1.96430       -2.67380       -1.16070
C         -1.26470       -2.12780        0.03660
H          0.83870        1.59940        0.02560
H         -2.66620        0.98940       -0.13570
H         -4.46240       -0.91590        0.04110
H         -3.15700       -3.21820        0.64340
H         -1.76590       -3.67370       -1.19810
H         -0.52380       -2.73440        0.54180
