20
gdb 6991	2.55714	2.21119	1.68261	1.2207	70.06	-0.2442	0.0793	0.3235	900.8334	0.175761	-386.1553	-386.14657	-386.145625	-386.188102	32.75
C          0.43510        1.50000       -0.44430
C         -0.07870        0.19070        0.14730
O         -0.03530       -0.85270       -0.83230
C          1.11950       -1.63840       -0.59270
O          1.75060       -1.14290        0.56130
C          0.75900       -0.41100        1.30450
C          1.49730        0.58590        2.18860
C         -0.09300       -1.37200        2.14670
H          1.49450        1.42430       -0.70660
H         -0.12650        1.72950       -1.35380
H          0.30760        2.33200        0.25560
H         -1.12750        0.30310        0.44450
H          0.80420       -2.68730       -0.46940
H          1.82970       -1.56810       -1.42830
H          2.17920        1.20550        1.60360
H          0.78950        1.23680        2.71100
H          2.08480        0.05200        2.94100
H          0.55000       -1.96920        2.79930
H         -0.79920       -0.81640        2.77200
H         -0.66790       -2.04930        1.50890
