18
gdb 19662	4.27	2.03047	1.91892	1.3002	70.57	-0.2558	0.0769	0.3327	775.1655	0.156961	-347.770125	-347.764041	-347.763097	-347.799877	25.766
O          0.06500        1.49150       -0.05900
C          0.01920        0.08800        0.03400
C          0.13860       -0.62930        1.41470
C         -0.92400        0.12530        2.23700
C         -2.11340       -0.33040        1.36400
C         -2.08240       -1.86650        1.58520
C         -0.76910       -1.77970        0.79470
C         -1.35340       -0.56870       -0.01470
H          0.98520        1.77060       -0.01270
H          0.68040       -0.38430       -0.70750
H          1.10670       -0.83830        1.86990
H         -1.01060       -0.21740        3.27180
H         -0.75500        1.20350        2.22370
H         -3.04010        0.23900        1.41360
H         -2.07830       -2.23880        2.61520
H         -2.84800       -2.39220        1.00650
H         -0.27270       -2.63090        0.33120
H         -1.94890       -0.67440       -0.92020
