15
gdb 15125	8.62395	0.77712	0.74323	5.4427	63.52	-0.2806	0.0053	0.2859	1443.7759	0.117148	-399.763938	-399.755626	-399.754682	-399.798102	27.886
N         -0.00390       -1.09080        0.51420
C          0.02640        0.05080        0.34590
C          0.01950        1.50020        0.12750
O          1.34270        1.96920        0.08420
C          1.41520        3.36070       -0.17890
C          2.86310        3.76220       -0.18070
C          3.26290        5.14410        0.10810
O          3.43420        4.11230        1.07810
H         -0.51710        1.70890       -0.81330
H         -0.55410        1.97580        0.94000
H          0.95910        3.58570       -1.15830
H          0.87600        3.93460        0.59060
H          3.50390        3.14980       -0.81500
H          4.17730        5.53940       -0.33070
H          2.50390        5.88870        0.34610
