9
gdb 3635	10.2986	2.00602	1.67898	3.7751	55.07	-0.2707	-0.0699	0.2007	657.2493	0.05461	-338.17596	-338.170482	-338.169538	-338.205178	19.651
C          0.07510       -1.19360       -0.00500
C          0.01220        0.00750        0.00220
C         -0.07380        1.40980        0.01110
C         -1.13380        2.27190        0.03060
N         -0.61600        3.54000        0.03030
N          0.64260        3.50640        0.01310
O          1.05060        2.14350        0.00090
H          0.13240       -2.25490       -0.01150
H         -2.19140        2.07530        0.04390
