17
gdb 7893	3.87967	1.63988	1.17799	3.3043	73.04	-0.2011	0.0034	0.2045	1019.311	0.141863	-363.919255	-363.911039	-363.910094	-363.951744	29.729
C         -0.00560        1.47540        0.00960
N         -0.01930        0.03120        0.00070
C         -1.16630       -0.78510        0.00330
C         -0.86370       -2.08890       -0.00630
C         -1.80130       -3.24940       -0.00700
C          0.64260       -2.20080       -0.01660
C          1.12740       -0.74330       -0.01160
O          2.26480       -0.32390       -0.01580
H          1.04080        1.78560        0.00280
H         -0.50760        1.88620       -0.87410
H         -0.49270        1.87540        0.90650
H         -2.14140       -0.31650        0.01240
H         -2.84350       -2.91640        0.00140
H         -1.65980       -3.88480       -0.89110
H         -1.64880       -3.89480        0.86790
H          1.04840       -2.72620        0.85640
H          1.03710       -2.71630       -0.90050
