13
gdb 18955	6.93377	1.51275	1.46397	2.5306	59.15	-0.246	0.0078	0.2539	826.0529	0.094727	-398.493182	-398.487158	-398.486214	-398.523575	22.783
O          0.05030        0.01540       -0.42000
C          0.01860        1.18540       -0.11160
N          1.05560        1.86930        0.47060
C          2.49700        1.61750        0.21900
C          2.60070        2.72310       -0.89470
O          3.70650        3.41560       -0.25940
C          2.89230        2.98500        0.86390
C          1.53220        3.23710        0.13730
H         -0.89240        1.81330       -0.19260
H          2.96660        0.64040        0.28820
H          2.56910        2.64700       -1.98120
H          3.20470        3.22420        1.87870
H          0.89940        4.12270        0.11950
