16
gdb 11722	5.26925	1.39532	1.2353	2.7448	67.13	-0.2589	-0.0383	0.2205	985.6476	0.128766	-383.716191	-383.708563	-383.707619	-383.748134	28.068
C         -0.05430        1.58570        0.13270
C          0.04480        0.07270        0.00420
C          1.08710       -0.53010       -1.01120
C          1.75050       -1.25890        0.15630
O          2.13830       -0.27840        1.13480
C          0.78000       -0.67750        1.13340
C          2.39480       -2.58150        0.21760
O          2.45240       -3.34370       -0.71670
H          0.92760        2.01510        0.35060
H         -0.42400        2.03120       -0.79650
H         -0.73990        1.87230        0.93730
H         -0.93980       -0.37470       -0.16110
H          0.64100       -1.21450       -1.73380
H          1.73400        0.18350       -1.52610
H          0.38590       -1.09740        2.05340
H          2.81310       -2.82540        1.21840
