18
gdb 11064	3.32091	2.31674	1.93038	1.8077	65.86	-0.2485	0.0785	0.3271	784.7173	0.155922	-384.960508	-384.953796	-384.952852	-384.990973	26.979
C         -0.06570        1.46740        0.01540
C          0.04680       -0.03700       -0.00020
C          0.67960       -0.69100       -1.25690
C          0.07470       -2.12440       -1.19030
C         -0.77010       -1.99230        0.09040
O          0.10400       -2.01500        1.21970
C          0.67600       -0.69960        1.24750
O         -1.25440       -0.66820        0.03380
H          0.92930        1.92360        0.01210
H         -0.60640        1.82160       -0.86680
H         -0.59810        1.80740        0.90820
H          0.36120       -0.15940       -2.15700
H          1.77190       -0.68040       -1.22420
H         -0.55590       -2.34350       -2.05570
H          0.82190       -2.91390       -1.09260
H         -1.57960       -2.70590        0.24180
H          1.76950       -0.75590        1.19760
H          0.38320       -0.18780        2.17250
