16
gdb 11851	6.70261	1.16718	1.088	3.3553	68.05	-0.2441	0.0208	0.2649	1072.7722	0.131036	-379.895621	-379.888038	-379.887093	-379.92878	27.035
O          0.06990        0.00840        0.52000
C          0.08260        1.21410        0.37590
N          1.17410        1.92790        0.02550
C          2.49820        1.45450       -0.38380
C          2.81790        2.91330       -0.76090
C          4.09330        3.63880       -0.61790
N          3.49390        3.39660       -1.94950
C          1.38970        3.32840       -0.36480
H         -0.80540        1.86140        0.52840
H          3.08880        1.01820        0.42880
H          2.46650        0.74750       -1.22200
H          4.10060        4.67960       -0.30530
H          4.97250        3.06980       -0.32500
H          3.97390        2.63510       -2.42400
H          0.77470        3.66540       -1.20670
H          1.31030        4.04510        0.46020
