14
gdb 20343	5.19707	2.24055	1.5811	2.6004	70.33	-0.2161	-0.026	0.1901	757.1159	0.111329	-341.613845	-341.608277	-341.607332	-341.643352	22.115
C         -0.07110        1.41600        0.01040
C          1.38010        1.85490       -0.00100
C          2.19760        0.78630       -0.01470
C          1.38640       -0.42210       -0.01360
C          1.36440       -1.80660       -0.02070
C         -0.01550       -2.12010       -0.00910
N         -0.79660       -1.03270        0.00410
N          0.08410       -0.02520        0.00100
H         -0.60970        1.75510        0.90350
H         -0.62660        1.76490       -0.86840
H          1.67100        2.89580        0.00180
H          3.27810        0.80280       -0.02500
H          2.19920       -2.48730       -0.03240
H         -0.47300       -3.09890       -0.00990
