14
gdb 10292	2.63286	1.76794	1.10826	1.8551	58.64	-0.2713	0.004	0.2753	1001.9421	0.106337	-415.899787	-415.891063	-415.890119	-415.933796	30.231
N          0.02810        1.16400        0.44230
C         -0.02440        0.03800       -0.30800
O          0.85900       -0.32440       -1.05650
C         -1.30440       -0.82360       -0.17690
C         -0.91410       -2.30010        0.12040
O         -2.02090       -3.16390        0.05990
C         -2.25890       -0.33880        0.81480
N         -2.98930        0.03850        1.62910
H          0.85060        1.74100        0.37240
H         -0.71650        1.43920        1.06040
H         -1.79140       -0.81160       -1.15840
H         -0.21290       -2.60370       -0.65800
H         -0.39710       -2.34880        1.08890
H         -2.57860       -3.00570        0.82960
