17
gdb 15999	3.85624	1.50458	1.22855	1.7027	64.33	-0.2471	0.0496	0.2967	992.0132	0.142374	-400.938439	-400.930664	-400.92972	-400.970918	28.649
O         -0.04890        1.43210       -0.37160
C          0.09360        0.05320       -0.09700
C         -1.25350       -0.55340        0.26340
O         -2.18920       -0.34930       -0.83030
C         -2.39520       -1.77450       -1.00380
C         -1.43490       -2.06680        0.14230
C         -0.46020       -3.15410        0.36340
N         -1.67970       -3.03970        1.19180
H         -0.75540        1.49750       -1.02640
H          0.51810       -0.49200       -0.95520
H          0.79430       -0.03850        0.74090
H         -1.63830       -0.10620        1.19090
H         -3.43470       -2.06660       -0.81690
H         -2.08830       -2.11520       -1.99980
H         -0.43990       -4.01380       -0.30130
H          0.50100       -2.90230        0.80520
H         -1.45620       -2.64890        2.10460
