13
gdb 10381	2.56348	2.16551	1.46395	3.1017	59.1	-0.2736	-0.0664	0.2072	852.8988	0.094098	-398.587858	-398.580263	-398.579319	-398.62045	26.048
O         -0.79050        0.75860        0.49880
C          0.17800        0.83930       -0.20290
C          1.31390        1.85490        0.02720
C          1.31110        2.55020        1.40620
C          2.55020        1.67740        1.68780
O          2.50000        1.09380        0.35270
C          1.48690        2.69860       -1.15700
N          1.58880        3.35710       -2.10150
H          0.37640        0.14500       -1.04410
H          1.48830        3.62380        1.37750
H          0.41590        2.32600        1.98500
H          3.48860        2.21730        1.84220
H          2.43340        0.91140        2.45980
