18
gdb 13666	5.36626	0.88418	0.81809	5.1444	73.38	-0.26	0.0398	0.2998	1387.4329	0.153901	-343.981892	-343.973134	-343.97219	-344.016049	31.003
C          0.09770        1.52900       -0.26410
C          0.02600        0.04950        0.02780
N          1.29750       -0.68940        0.12190
C          0.43330       -0.58660        1.31220
C          1.00570        0.15910        2.49630
C          2.10950       -0.67550        3.18070
C          2.69210       -0.00120        4.33760
N          3.13870        0.54700        5.25180
H          0.96300        1.99210        0.21430
H          0.18850        1.69760       -1.34230
H         -0.80810        2.03910        0.08090
H         -0.78960       -0.45890       -0.48650
H          1.21740       -1.60670       -0.30740
H         -0.12630       -1.48110        1.58870
H          1.43340        1.11250        2.17900
H          0.21080        0.38230        3.21640
H          1.71060       -1.64300        3.50820
H          2.90030       -0.88510        2.45240
