16
gdb 20861	3.15592	1.85889	1.27735	3.8095	66.78	-0.2147	0.0021	0.2167	955.8612	0.131071	-379.91654	-379.908569	-379.907625	-379.949074	28.984
C          0.07200        1.51570        0.13490
C         -0.05920       -0.00510       -0.06140
C          0.69550       -0.51280       -1.25210
N          0.07520       -0.79740       -2.37370
O          1.04620       -1.22880       -3.25910
C          2.24850       -1.18180       -2.64500
C          2.10610       -0.74050       -1.36650
N          3.04620       -0.62660       -0.33270
H          1.11490        1.82370        0.27010
H         -0.31920        2.05180       -0.73440
H         -0.48530        1.84000        1.01860
H          0.30040       -0.52660        0.83390
H         -1.11290       -0.26850       -0.18800
H          3.09500       -1.50100       -3.23200
H          4.00150       -0.67480       -0.66220
H          2.92850        0.21660        0.21460
