18
gdb 19138	3.31588	1.62943	1.31987	2.7752	72.63	-0.2488	-0.0233	0.2256	984.6599	0.152988	-347.787226	-347.779269	-347.778325	-347.819699	29.881
O         -0.12050        0.17250        0.77490
C          0.08200        1.01800       -0.06690
C          1.27370        1.90880       -0.09000
C          1.81510        2.26810        1.29580
C          2.54610        1.26880        0.47040
C          1.41600        2.92250       -1.19120
C          0.98130        2.65440       -2.61210
C          0.23990        3.66860       -1.77430
H         -0.64790        1.16520       -0.89160
H          2.22980        3.26390        1.40630
H          1.24070        1.90040        2.13820
H          2.46560        0.22620        0.75530
H          3.47800        1.55780       -0.00280
H          2.32690        3.50740       -1.09310
H          1.61440        3.01210       -3.41660
H          0.48590        1.71410       -2.83000
H         -0.75560        3.41220       -1.42720
H          0.36530        4.72070       -2.00510
