9
gdb 23851	5.91029	1.65164	1.2909	3.8771	48.1	-0.2963	-0.1267	0.1696	798.2134	0.047555	-474.601802	-474.595891	-474.594947	-474.632547	21.005
F          0.06380        0.02980        0.00230
C         -0.01940        1.34550        0.01050
N         -1.18560        1.86700        0.02840
O         -1.21040        3.24160        0.03640
C         -0.04730        4.03810        0.02600
O         -0.19990        5.21800        0.03390
N          1.19680        3.39110        0.00620
C          1.20570        2.10870       -0.00100
H          2.15760        1.57780       -0.01620
