13
gdb 20708	5.46922	1.49036	1.17976	2.517	63.28	-0.2809	-0.0604	0.2205	953.1919	0.096346	-394.826265	-394.819268	-394.818324	-394.857854	24.42
C         -0.03070        1.46000       -0.00280
C          0.00820       -0.02810        0.00150
N         -0.03130       -0.74700       -1.10070
N          0.02700       -2.02780       -0.62680
C          0.01350       -3.16980       -1.44450
O         -0.04990       -3.15750       -2.63720
C          0.09850       -1.99670        0.74050
N          0.08930       -0.76670        1.17090
H          0.86630        1.86630        0.47480
H         -0.09420        1.83260       -1.02580
H         -0.89260        1.82050        0.56720
H          0.07000       -4.08350       -0.82480
H          0.15360       -2.89280        1.34150
