9
gdb 23645	4.21797	2.02779	1.36944	3.3672	46.87	-0.3115	-0.0934	0.2181	760.292	0.049085	-474.680042	-474.674305	-474.67336	-474.710405	20.246
F          0.04510        0.09390        0.00270
C         -0.02110        1.39780        0.01080
N         -1.19550        1.92590        0.02960
C         -1.28240        3.29040        0.03800
O         -2.24680        3.97750        0.05480
O          0.00550        3.99440        0.02400
C          1.11410        3.29030        0.00510
N          1.20050        2.00130       -0.00290
H          2.01130        3.90470       -0.00400
