15
gdb 18338	3.3855	2.47056	1.62071	5.0461	60.32	-0.2549	0.0355	0.2904	778.4954	0.121694	-399.824772	-399.81844	-399.817496	-399.855629	23.606
O         -0.17670        0.25500        0.82130
C         -0.11650        1.31900        0.27600
O         -1.22440        2.06550       -0.03210
C         -0.85960        3.38820       -0.44380
C          0.67740        3.41430       -0.37550
C          1.44210        3.83460        0.91070
C          1.99880        2.38130        0.94800
N          1.03500        1.99930       -0.12970
H         -1.22900        3.55110       -1.46040
H         -1.33490        4.11310        0.22560
H          1.12130        3.81070       -1.29260
H          2.16870        4.64180        0.80540
H          0.77600        4.05650        1.74910
H          3.03230        2.28780        0.60680
H          1.86490        1.80470        1.86530
