18
gdb 3016	5.31568	1.55287	1.31514	1.6872	64.08	-0.2454	0.0716	0.317	950.053	0.159414	-326.948771	-326.940517	-326.939573	-326.981511	29.594
C         -0.15210        1.53430       -0.19250
C         -0.11410        0.00670       -0.26790
C          1.15590       -0.53160       -0.93990
O          2.33870       -0.08970       -0.27110
C          1.12840       -2.04040       -1.07010
C          0.79100       -2.67810       -2.36820
N          2.16650       -2.72620       -1.84920
H          0.73500        1.91440        0.32030
H         -0.17200        1.97720       -1.19450
H         -1.03950        1.88290        0.34400
H         -0.17880       -0.42000        0.74350
H         -0.98610       -0.37260       -0.81540
H          1.24160       -0.09570       -1.94490
H          2.37810       -0.53690        0.58200
H          0.85770       -2.56730       -0.15380
H          0.27470       -3.63360       -2.39100
H          0.56830       -2.02570       -3.20940
H          2.74750       -2.03230       -2.31520
