18
gdb 19972	3.56894	1.68078	1.38495	2.8376	67.18	-0.2429	0.0804	0.3233	944.7379	0.153313	-384.896457	-384.888525	-384.887581	-384.929294	28.848
C         -0.11440        1.57740       -0.00140
C          0.12990        0.08050       -0.03250
O          1.36250       -0.26040       -0.71020
C          1.89120       -0.92580        0.45170
C          0.61090       -0.64130        1.26420
C          0.73670        0.16140        2.53200
C          1.84160       -0.02880        3.48090
O          1.80250        1.11150        2.62060
H          0.70040        2.10060        0.50430
H         -0.18870        1.95530       -1.02590
H         -1.05530        1.80700        0.51150
H         -0.71860       -0.42750       -0.51180
H          2.10790       -1.98350        0.26000
H          2.79340       -0.42860        0.82600
H          0.02180       -1.53700        1.48290
H         -0.20800        0.52860        2.93790
H          1.69020        0.17830        4.53900
H          2.62420       -0.75320        3.25790
