19
gdb 19077	5.659	1.35778	1.31517	1.1519	76.31	-0.1966	0.0761	0.2727	1029.5061	0.164866	-327.835439	-327.827882	-327.826938	-327.866603	30.087
C         -0.18040        1.32900       -0.08370
C          0.04680       -0.16450        0.01100
C          1.46480       -0.65340       -0.15650
C          0.80120       -0.66720        1.21770
C          0.93930       -2.21730        1.24370
C          1.58280       -2.20400       -0.09010
N          0.24160       -2.80130        0.07910
C          0.26760       -4.26010        0.07720
H          0.66370        1.89290        0.32900
H         -0.31020        1.64080       -1.12580
H         -1.07910        1.62500        0.46830
H         -0.75110       -0.78430       -0.38040
H          2.26320       -0.01310       -0.51040
H          1.01560       -0.03890        2.07330
H          1.15160       -2.82340        2.11570
H          2.40220       -2.79760       -0.47630
H          1.18390       -4.69290        0.51500
H         -0.59040       -4.63470        0.64460
H          0.18070       -4.61880       -0.95340
