16
gdb 6741	5.83991	0.9328	0.81246	1.3891	66.14	-0.2515	0.0107	0.2622	1371.4428	0.128934	-417.105021	-417.095889	-417.094944	-417.139491	31.454
C          0.52680        1.03610        0.43290
C         -0.30030        0.11040       -0.46360
N          0.38980       -0.88080       -1.27600
C          1.63870       -0.96650       -1.23410
O          2.24340       -1.92100       -2.01980
C          3.61810       -1.99150       -1.96800
N          4.02930       -3.00120       -2.77350
O          4.32610       -1.27920       -1.30040
H          1.10180        0.47600        1.17770
H          1.22610        1.64770       -0.14680
H         -0.14110        1.71530        0.97110
H         -1.02740       -0.43910        0.14850
H         -0.90560        0.71290       -1.15340
H          2.35280       -0.38510       -0.65340
H          3.37520       -3.46260       -3.38070
H          5.01590       -3.10330       -2.93020
