16
gdb 14619	6.03589	0.7358	0.70866	4.8479	67.1	-0.2632	0.0152	0.2784	1521.9498	0.130369	-379.965521	-379.956587	-379.955643	-380.001573	29.836
O          0.44390        0.78170       -1.52220
C          0.20950        1.45370       -0.54100
N          1.07840        1.65830        0.48780
C          2.42210        1.10830        0.48810
C          3.47610        2.10660       -0.00940
C          4.88170        1.47490       -0.02390
C          5.91290        2.41710       -0.45130
N          6.71600        3.17720       -0.78640
H         -0.75630        1.96960       -0.37400
H          0.79910        2.27520        1.23380
H          2.66780        0.76820        1.50100
H          2.39910        0.23230       -0.16580
H          3.21050        2.43580       -1.01830
H          3.48340        2.99660        0.62940
H          5.14540        1.10480        0.97440
H          4.90030        0.60820       -0.69490
