14
gdb 11727	5.43912	1.40929	1.25022	1.4539	59.43	-0.2659	-0.0463	0.2196	929.5096	0.105553	-419.640695	-419.633488	-419.632544	-419.672324	26.501
O         -0.02630        1.42510       -0.15910
C          0.03420        0.03700       -0.02550
C          0.42050       -0.58090        1.37520
C         -0.93990       -1.26930        1.39240
O         -1.94780       -0.24830        1.25320
C         -1.31810       -0.70150        0.06250
C         -1.35550       -2.57220        1.94510
O         -0.59030       -3.35840        2.44630
H         -0.67220        1.73860        0.48650
H          0.66890       -0.34160       -0.82940
H          1.25490       -1.28150        1.32080
H          0.58550        0.13640        2.18170
H         -1.95740       -1.10060       -0.71790
H         -2.44360       -2.77350        1.84200
