15
gdb 4994	3.30094	2.3134	1.37153	2.7819	73.24	-0.2092	-0.0404	0.1687	865.6219	0.120219	-362.704541	-362.697611	-362.696666	-362.73552	26.474
C         -0.02190        1.52310        0.03920
C         -0.04050        0.02460        0.02230
C         -1.16600       -0.71930        0.13520
C         -1.11360       -2.15620        0.11150
C          0.08510       -2.74320       -0.02610
O          1.23440       -2.04270       -0.14210
C          1.24880       -0.64720       -0.12650
N          2.35040       -0.02220       -0.23870
H          0.60800        1.89310        0.85480
H          0.41950        1.91510       -0.88300
H         -1.03130        1.92610        0.15390
H         -2.12710       -0.22650        0.24600
H         -2.00690       -2.75940        0.20090
H          0.26590       -3.81040       -0.05900
H          3.12860       -0.67520       -0.33160
