13
gdb 4734	6.93409	1.27722	1.07856	0.6778	72.9	-0.1906	-0.0016	0.189	1012.0655	0.095463	-361.463401	-361.45601	-361.455066	-361.494659	28.009
O          0.10020        1.38430       -0.14510
C          0.06830        0.02550       -0.03750
C         -0.01060       -0.82480       -1.12370
N         -0.02090       -2.10550       -0.63430
C          0.04960       -2.09470        0.73860
C          0.10660       -0.76240        1.13610
C          0.05570       -3.28040        1.49620
C          0.06000       -4.30520        2.13200
H          0.15550        1.75930        0.73830
H         -0.05860       -0.61170       -2.17790
H         -0.07220       -2.94240       -1.18780
H          0.16830       -0.41780        2.15710
H          0.06440       -5.20120        2.70120
