15
gdb 19897	3.90535	2.04307	1.69892	2.9709	64.98	-0.2319	-0.0328	0.1991	782.1881	0.117946	-362.56168	-362.554908	-362.553964	-362.593026	25.485
O         -0.13890       -0.09170       -0.18230
C         -0.06350        1.10910       -0.21890
C          1.14930        1.92320        0.12850
C          1.47200        2.85900        1.24090
C          1.10030        2.44460        2.67250
C          0.35070        1.14850        2.72460
C          1.81570        1.14130        2.38710
N          2.27350        1.59700        1.00790
H         -0.89310        1.73170       -0.62850
H          1.53910        2.31480       -0.81860
H          1.91190        3.82900        1.02840
H          1.20140        3.12090        3.51010
H          0.16560        0.79560        3.73560
H         -0.44020        0.89190        2.03450
H          2.54740        0.59430        2.96570
