12
gdb 2058	5.45422	2.7998	1.89843	4.3332	52.29	-0.2291	-0.0021	0.2271	625.7856	0.092239	-360.560766	-360.554947	-360.554003	-360.59055	21.22
O          0.00240       -0.02320        0.20300
C         -0.01410        1.16410        0.01190
N         -1.18870        1.89670       -0.07890
C         -1.21560        3.28990       -0.00930
C         -0.10790        3.98550       -0.25170
C          1.11780        3.21610       -0.63840
O          1.12610        1.88090       -0.08450
H         -2.01570        1.36050        0.12650
H         -2.16950        3.72810        0.25760
H         -0.07890        5.06420       -0.19020
H          1.21650        3.12970       -1.73150
H          2.03270        3.68090       -0.26220
