13
gdb 20431	6.30179	1.53227	1.30695	4.0116	60.42	-0.2536	-0.0385	0.2151	882.7704	0.096563	-394.703761	-394.697453	-394.696509	-394.734806	22.921
C         -0.08310        1.37330       -0.22560
C          1.30440        0.88740        0.01800
N          0.17930       -0.03880        0.08360
C         -0.20080       -0.54930        1.31520
N          0.62640       -0.79840        2.30000
O         -0.13890       -1.37630        3.28340
N         -1.44730       -1.47380        2.90590
C         -1.50700       -0.97720        1.70490
H         -0.54440        1.97980        0.54940
H         -0.43060        1.56320       -1.23590
H          1.97740        0.72750       -0.81790
H          1.77950        1.15900        0.95570
H         -2.43410       -0.93530        1.15530
