16
gdb 19440	4.06641	1.95846	1.62381	2.1561	63.65	-0.234	0.0786	0.3126	813.3726	0.131126	-383.69833	-383.691816	-383.690872	-383.728886	25.675
C         -0.01890        1.47790        0.02500
O          1.17730        0.69480       -0.08450
C         -0.08040        0.01620       -0.01280
C         -0.35440       -0.85530        1.21330
O         -0.35820       -2.20680        0.75480
C         -0.60280       -2.21170       -0.62960
C         -1.82230       -1.50040       -1.14460
C         -0.45680       -0.82500       -1.19540
H         -0.14640        2.00520        0.97060
H         -0.28720        2.05230       -0.86080
H          0.42640       -0.73860        1.96950
H         -1.32390       -0.60250        1.66620
H         -0.22660       -3.10760       -1.10750
H         -2.22910       -1.83400       -2.09290
H         -2.56530       -1.14230       -0.43980
H          0.01860       -0.60880       -2.14350
