13
gdb 97	10.13697	4.32512	3.50912	1.8995	45.45	-0.2419	0.0814	0.3233	414.1575	0.114694	-232.325947	-232.320548	-232.319604	-232.354576	18.443
C         -0.18370        1.54670       -0.01670
C          0.04510        0.04390        0.02270
C          1.20300       -0.54030       -0.81980
O          1.80060       -1.15530        0.33920
C          0.83390       -0.54310        1.21650
H          0.75100        2.09260        0.15340
H         -0.58320        1.86160       -0.98690
H         -0.89840        1.85920        0.75240
H         -0.89510       -0.48770       -0.14840
H          0.93560       -1.27860       -1.58540
H          1.86390        0.21380       -1.27080
H          1.29410        0.20950        1.87270
H          0.31520       -1.28330        1.83760
