9
gdb 23630	4.26946	2.00741	1.36542	4.7063	46.29	-0.2883	-0.0704	0.2179	762.5277	0.049066	-474.664497	-474.658737	-474.657793	-474.695145	20.133
F          0.08610        0.08440        0.00200
C         -0.06020        1.37800        0.01140
N         -1.18990        1.93160        0.02960
C         -1.22020        3.35210        0.03790
O         -2.24950        3.96010        0.05540
N          0.04150        4.03280        0.02430
C          1.09320        3.34050        0.00620
O          1.15230        1.96070       -0.00190
H          2.09570        3.75520       -0.00520
