21
gdb 10611	2.12464	1.86088	1.31997	1.9857	75.04	-0.2292	0.0824	0.3116	1070.9826	0.187387	-366.231104	-366.221568	-366.220624	-366.265274	34.928
C          1.74800       -1.30670        0.98870
C          0.65570       -0.46500        0.31510
C          0.82760       -0.35050       -1.19180
C          1.93610        0.59030       -1.64170
O          1.56730        1.94170       -1.42260
C          0.43900       -1.47650       -2.09080
N         -0.32550       -0.23090       -2.10500
C         -1.69160       -0.27660       -1.60330
H          1.75010       -2.33200        0.60420
H          2.74560       -0.88830        0.82340
H          1.58820       -1.35330        2.07040
H         -0.31930       -0.89910        0.55400
H          0.65970        0.54970        0.73100
H          2.85510        0.42540       -1.07000
H          2.16150        0.40670       -2.70220
H          0.74850        2.06380       -1.91890
H          1.01130       -1.70530       -2.98700
H         -0.02910       -2.34330       -1.62360
H         -1.88110       -1.05900       -0.85310
H         -1.95620        0.69080       -1.16400
H         -2.36360       -0.45910       -2.44840
