18
gdb 11311	5.11925	1.21863	1.03463	3.4963	77.51	-0.2467	-0.0532	0.1935	1141.2469	0.153961	-347.841369	-347.833415	-347.832471	-347.873832	29.311
C         -0.06110        1.57600        0.00400
C          0.03810        0.04630        0.01680
C          0.78910       -0.55870       -1.20310
C          1.53630       -1.80470       -0.66640
C          1.62310       -1.52650        0.81840
C          2.46320       -2.28690        1.74480
O          3.17230       -3.21440        1.41940
C          0.80710       -0.52630        1.18240
H          0.93470        2.03160       -0.01160
H         -0.60300        1.92150       -0.88220
H         -0.59070        1.95080        0.88620
H         -0.98690       -0.35620        0.05960
H          0.12030       -0.78580       -2.03700
H          1.51790        0.17620       -1.56380
H          0.97430       -2.73090       -0.84290
H          2.51950       -1.95280       -1.12150
H          2.41110       -1.94680        2.80390
H          0.67910       -0.17500        2.20250
