14
gdb 9698	3.52319	1.79095	1.64575	3.1646	61.72	-0.2757	-0.0046	0.2711	827.3367	0.107563	-378.748395	-378.741126	-378.740182	-378.780173	26.228
C         -0.13700        1.61830       -0.02600
C          0.03070        0.09960       -0.02810
C          0.94660       -0.43990       -1.18560
N          2.11220       -1.01570       -0.50970
C          1.90000       -0.89080        0.72990
O          0.75890       -0.29520        1.16930
C         -1.27640       -0.57330        0.00020
N         -2.30940       -1.09010       -0.01600
H          0.85050        2.08700       -0.03900
H         -0.69220        1.93700       -0.91260
H         -0.67680        1.94770        0.86430
H          0.44540       -1.20080       -1.78930
H          1.25270        0.37210       -1.85240
H          2.56070       -1.21830        1.52420
