14
gdb 2931	6.34862	2.11279	1.76915	2.269	54.06	-0.2581	0.0216	0.2798	714.5172	0.11434	-361.72096	-361.714413	-361.713469	-361.751719	22.95
C          0.03770        1.42060        0.03910
O          0.01030        0.00180        0.00000
C          0.56670       -0.54750       -1.14200
C          0.51100       -2.08550       -1.05570
N         -0.52100       -2.49360       -2.02130
C         -0.85050       -1.43330       -2.62850
O         -0.24980       -0.25570       -2.30930
H          1.06560        1.79980       -0.05840
H         -0.57720        1.85460       -0.75730
H         -0.36250        1.71780        1.01010
H          1.55480       -0.11550       -1.34690
H          1.46670       -2.55130       -1.31550
H          0.24160       -2.39220       -0.04180
H         -1.58640       -1.36210       -3.42170
