15
gdb 4497	3.70821	1.73326	1.19579	0.8152	66.09	-0.1738	0.0369	0.2107	971.568	0.118104	-399.823894	-399.815554	-399.814609	-399.856472	30.002
C          0.09610        1.47250        0.00860
C         -0.06750       -0.00280       -0.03160
C         -1.14080       -0.82980       -0.12740
C         -0.62440       -2.17110       -0.08780
O         -1.30740       -3.36460       -0.07180
C          0.72870       -2.06210        0.01740
N          1.75640       -3.00130        0.01620
O          1.08410       -0.75020        0.05450
H          0.72170        1.83660       -0.81520
H         -0.88190        1.95330       -0.06930
H          0.56430        1.80440        0.94320
H         -2.17600       -0.53190       -0.19670
H         -1.90130       -3.39220       -0.82900
H          1.36100       -3.93420        0.00260
H          2.37050       -2.91230        0.81990
