15
gdb 6361	4.78884	1.0783	0.93586	2.6933	59.47	-0.2478	-0.0311	0.2167	1185.2294	0.116778	-436.978299	-436.969495	-436.968551	-437.012638	30.7
N          0.33270        0.60330       -0.31630
C         -0.66060        0.38500        0.58540
O         -0.77230        0.97200        1.64210
C         -1.71720       -0.64090        0.13280
C         -1.17030       -1.94010       -0.44610
O         -0.28970       -1.97060       -1.27500
C         -1.82220       -3.20260        0.09270
O         -1.30480       -4.32770       -0.55860
H          1.09970        1.18570       -0.01960
H          0.48030       -0.07830       -1.04900
H         -2.37790       -0.81970        0.98250
H         -2.31390       -0.17160       -0.66060
H         -1.64140       -3.20980        1.18300
H         -2.91410       -3.09020       -0.03460
H         -1.71700       -5.11020       -0.18120
