20
gdb 6539	3.11629	1.65967	1.33803	1.6159	72.08	-0.2393	0.0772	0.3165	1016.1615	0.173229	-386.11928	-386.109543	-386.108599	-386.15283	36.065
C          0.05250        1.25850       -0.29420
O         -0.08510       -0.01170        0.31100
C         -1.35660       -0.59000        0.17640
C         -2.44710        0.06580        0.99440
C         -1.68570       -1.20230       -1.17980
C         -1.33080       -2.08400        0.00790
C         -0.02310       -2.84080        0.02360
O         -2.38960       -2.75710        0.64410
H          1.10630        1.53540       -0.21150
H         -0.22940        1.23530       -1.35670
H         -0.55100        2.02730        0.20770
H         -2.69290        1.06080        0.60890
H         -3.35110       -0.54330        0.97980
H         -2.12070        0.17130        2.03410
H         -2.72170       -1.18630       -1.50170
H         -0.95020       -1.10140       -1.97120
H          0.78640       -2.23440       -0.38400
H          0.23670       -3.12090        1.04910
H         -0.10510       -3.75940       -0.57050
H         -2.61020       -3.52510        0.10570
