16
gdb 15898	2.63149	2.07469	1.29374	3.4219	61.29	-0.2522	-0.0003	0.2518	950.6311	0.128965	-420.892297	-420.883982	-420.883038	-420.925411	28.99
C         -0.10730        1.44940        0.25500
O         -0.12850        0.17840       -0.37990
C         -1.32210       -0.51140       -0.18460
C         -1.34380       -1.95380       -0.73930
C         -0.05400       -2.51150       -1.29400
O         -1.63100       -2.46010        0.61900
C         -1.52640       -1.21440        1.17680
O         -1.57720       -0.91820        2.32810
H          0.86230        1.89680        0.02920
H         -0.90460        2.09930       -0.13570
H         -0.22560        1.35730        1.34090
H         -2.19660        0.09260       -0.47130
H         -2.19910       -2.17310       -1.38320
H          0.78780       -2.26810       -0.64300
H         -0.12770       -3.59770       -1.39520
H          0.14150       -2.08210       -2.28120
