13
gdb 4151	3.46957	1.53059	1.12851	4.7936	62.66	-0.2602	-0.0234	0.2369	988.0729	0.095305	-394.711391	-394.703873	-394.702929	-394.743598	26.746
O         -0.11750        1.35710        0.04250
N          0.03340       -0.03010        0.10560
C         -1.07760       -0.61650        0.00180
C         -2.53510       -0.27520       -0.20520
N         -2.79180       -1.72910       -0.42880
C         -1.41720       -2.10280        0.01460
C         -0.69360       -2.98740       -0.90100
N         -0.11670       -3.69120       -1.61240
H          0.79280        1.66840        0.10410
H         -3.00790        0.16070        0.68490
H         -2.76690        0.35450       -1.07000
H         -3.52470       -2.12810        0.14540
H         -1.35910       -2.52850        1.02640
