16
gdb 6674	7.488	0.75466	0.70392	2.7282	63.24	-0.2605	-0.033	0.2274	1527.0882	0.126907	-420.923125	-420.91368	-420.912736	-420.959689	30.451
C         -0.18440        1.46320       -0.03900
C          0.06520       -0.02120       -0.14150
O          1.11030       -0.54580       -0.42760
O         -1.06420       -0.71550        0.13570
C         -0.93940       -2.14460        0.07710
C         -2.30800       -2.73190        0.40580
C         -2.35150       -4.22650        0.16630
O         -2.71950       -5.03920        0.97280
H         -0.51890        1.71800        0.97070
H          0.73280        2.00140       -0.27400
H         -0.97960        1.75930       -0.72890
H         -0.60230       -2.43820       -0.92320
H         -0.17530       -2.47230        0.78870
H         -2.59890       -2.52450        1.43810
H         -3.04900       -2.26990       -0.26200
H         -2.01840       -4.53900       -0.85130
