14
gdb 21223	7.16644	1.32209	1.12732	2.19	60.86	-0.2135	0.0276	0.2411	1013.0074	0.10867	-412.04967	-412.042029	-412.041084	-412.081512	27.646
C          0.00030        1.40980       -0.06660
N         -0.04940       -0.02670        0.13720
C         -1.23560       -0.68850        0.03840
N         -2.40200       -0.07680        0.02050
O         -3.31460       -1.18500       -0.02740
C         -2.55700       -2.27990       -0.05160
N         -3.18870       -3.47890       -0.16120
N         -1.27180       -2.06570       -0.01220
H          1.01220        1.76240        0.14360
H         -0.28070        1.70880       -1.08600
H         -0.69020        1.89720        0.62630
H          0.74080       -0.56910       -0.17330
H         -4.15400       -3.50140        0.12690
H         -2.63590       -4.27780        0.10500
