11
gdb 21896	3.77989	1.92968	1.2775	5.641	59.33	-0.2504	-0.0225	0.2279	845.4166	0.074762	-393.618946	-393.612519	-393.611575	-393.649586	23.68
O          0.12430        1.32100        0.05710
C          0.08130       -0.01630        0.04510
N          0.08470       -0.72390       -1.07010
N          0.03280       -2.01360       -0.64080
C         -0.00240       -2.13070        0.69500
C          0.02720       -0.83930        1.20660
C          0.00800       -0.44250        2.56140
N         -0.00780       -0.11880        3.67340
H          0.15570        1.62340       -0.85990
H          0.02520       -2.75070       -1.32460
H         -0.04510       -3.08390        1.19690
