11
gdb 2608	11.64807	1.01682	0.94056	0.6662	72.49	-0.248	-0.0186	0.2294	1133.1349	0.075448	-268.888303	-268.880847	-268.879903	-268.919805	26.366
C         -0.09610       -1.23190       -0.00360
C         -0.03490       -0.03340        0.00230
C          0.02540        1.42950        0.00950
C          1.38820        1.95650       -0.00070
C          2.51150        2.40250       -0.00900
C          3.77650        2.90430       -0.01840
C          4.89830        3.35040       -0.02670
H         -0.14470       -2.29270       -0.00890
H         -0.52220        1.82260       -0.85870
H         -0.50550        1.81320        0.89220
H          5.88530        3.74160       -0.03400
