13
gdb 9574	4.42661	1.32741	1.2691	2.4732	64.66	-0.2901	-0.0142	0.2759	953.0072	0.095903	-357.648493	-357.640789	-357.639845	-357.680486	27.748
N         -0.02990        1.45040        0.03870
C          0.00990        0.01920        0.01800
C         -0.44840       -0.68060        1.27690
C         -1.34650       -0.70700        0.06220
C         -2.55110        0.07300        0.01780
N         -3.53800        0.67250       -0.03890
C          1.03730       -0.62660       -0.77780
N          1.87280       -1.10000       -1.42310
H          0.82560        1.83250        0.42850
H         -0.15250        1.83330       -0.89320
H          0.03000       -1.61070        1.55670
H         -0.73340       -0.02170        2.08720
H         -1.39830       -1.64170       -0.48510
