15
gdb 4481	3.64466	1.70012	1.17149	1.3035	64.06	-0.1706	0.0627	0.2333	974.2079	0.117622	-399.829858	-399.821265	-399.820321	-399.862572	30.92
C         -0.00500        1.52930        0.03390
C          0.03810        0.03290        0.02700
C         -1.08920       -0.77160       -1.07920
O         -0.13940       -0.49270       -2.41020
N          0.06060       -2.09620       -0.67260
C          0.12830       -2.12900        0.69200
O          0.17860       -3.35070        1.28690
C          0.13010       -0.84420        1.16820
H          0.93370        1.97190        0.39090
H         -0.19260        1.91250       -0.97360
H         -0.80270        1.90760        0.68390
H          0.68540       -0.12600       -2.74650
H         -0.01220       -2.89640       -1.27630
H          0.17400       -3.21780        2.23940
H          0.18550       -0.54670        2.20470
