15
gdb 21025	3.72369	2.08339	1.35894	2.4152	63.82	-0.2152	0.0143	0.2295	879.7867	0.120015	-396.026159	-396.018278	-396.017334	-396.058669	27.193
C         -0.03100        1.45460       -0.00260
N         -0.06930        0.00890       -0.02660
C         -0.14440       -0.83880       -1.09960
N         -0.15920       -2.08810       -0.75060
N         -0.09010       -2.05650        0.62410
C         -0.08220       -3.26670        1.40750
C         -0.03190       -0.77780        1.13380
O          0.03520       -0.40260        2.28940
H          0.84550        1.83690       -0.53450
H         -0.93530        1.88250       -0.44600
H          0.02870        1.74930        1.04690
H         -0.18650       -0.49800       -2.12250
H          0.78130       -3.88830        1.15270
H         -0.02240       -2.96670        2.45500
H         -0.99730       -3.84270        1.24110
