13
gdb 1399	7.02872	1.46239	1.26086	3.1706	60.16	-0.2606	0.012	0.2727	885.3082	0.100895	-303.469082	-303.461435	-303.460491	-303.500832	27.071
N         -0.09910        1.49460        0.06910
C          0.00090        0.03940        0.02630
C          0.68740       -0.54470       -1.25690
C          0.01580       -0.08640       -2.46850
N         -0.54290        0.30870       -3.40020
C          0.71610       -0.45920        1.20050
C          1.34220       -0.88010        2.13500
H          0.82620        1.91320        0.07780
H         -0.58310        1.83230       -0.75830
H         -1.02390       -0.35290        0.04690
H          1.73530       -0.22730       -1.28220
H          0.67840       -1.63910       -1.22430
H          1.87480       -1.24640        2.97810
