14
gdb 20651	3.34832	2.0889	1.29678	4.8535	67.01	-0.257	-0.0479	0.2091	886.1429	0.108254	-378.762564	-378.755548	-378.754604	-378.793867	25.372
C         -0.02890        1.51010        0.04370
C         -0.01110        0.01840       -0.05230
C         -0.02920       -0.79590       -1.15160
C          0.00270       -2.12240       -0.63710
N          0.03810       -2.15010        0.67710
N          0.02990       -0.83250        1.04310
C          0.06100       -0.45820        2.39280
O          0.09640       -1.21880        3.31660
H          0.86440        1.90420        0.54040
H         -0.06290        1.93260       -0.96250
H         -0.90320        1.88000        0.59000
H         -0.06110       -0.48330       -2.18320
H          0.00060       -3.05170       -1.18950
H          0.04910        0.64050        2.49730
