21
gdb 1299	6.41007	1.04951	0.95047	1.0262	72.19	-0.2495	0.0835	0.333	1286.4754	0.19265	-312.119017	-312.109494	-312.10855	-312.153443	33.135
C          0.06450        1.38940       -0.06000
O          0.03060       -0.01560       -0.06860
C         -1.27600       -0.53540        0.06470
C         -1.18830       -2.05690        0.05550
C         -2.54610       -2.78000        0.05090
C         -2.34410       -4.28800       -0.15110
C         -3.36210       -2.51210        1.32470
H          1.10850        1.69450       -0.16750
H         -0.51760        1.81970       -0.89130
H         -0.33090        1.80470        0.88130
H         -1.73400       -0.16620        0.99740
H         -1.91360       -0.18330       -0.76650
H         -0.61770       -2.34760       -0.83470
H         -0.59770       -2.38210        0.92200
H         -3.12450       -2.40270       -0.80550
H         -1.76810       -4.71930        0.67650
H         -3.30350       -4.81390       -0.19640
H         -1.80050       -4.49740       -1.07820
H         -3.59490       -1.45070        1.45140
H         -4.31200       -3.05660        1.30200
H         -2.81300       -2.84150        2.21520
