18
gdb 9013	5.58856	0.79682	0.74428	2.9255	78.11	-0.2441	-0.0233	0.2208	1530.011	0.15013	-347.797049	-347.786925	-347.78598	-347.83411	33.642
C          0.04790        1.49820       -0.02860
C          0.03310        0.04200       -0.02580
C          0.03630       -1.16230       -0.02180
C          0.01530       -2.61970       -0.00540
C         -1.42240       -3.21000        0.01700
C         -2.22860       -2.80030       -1.22540
C         -1.32750       -4.72130        0.07900
O         -1.76860       -5.41290        0.95910
H          0.90790        1.88710        0.52770
H          0.10600        1.89550       -1.04800
H         -0.85690        1.90640        0.43500
H          0.54780       -3.00910       -0.88470
H          0.56510       -2.98530        0.87130
H         -1.93200       -2.87540        0.92520
H         -2.24750       -1.71140       -1.31620
H         -1.77850       -3.20670       -2.13880
H         -3.25830       -3.16380       -1.16390
H         -0.79850       -5.17430       -0.79560
