17
gdb 20061	5.39987	1.39085	1.18197	1.6289	70.58	-0.2311	0.0169	0.248	1016.5691	0.143484	-363.830824	-363.823586	-363.822642	-363.862945	26.818
C          0.17990        1.57110        0.07360
N          1.17440        0.52890       -0.23740
C         -0.20890        0.14160        0.08340
C         -0.37850       -0.62500        1.37960
O         -1.73290       -0.52030        1.83290
C         -2.29200       -1.81480        2.03920
C         -1.22040       -2.77810        1.61180
C         -0.13500       -2.10590        1.24870
H          0.34400        2.08980        1.01440
H         -0.19280        2.19860       -0.73120
H          1.32750        0.48040       -1.24060
H         -0.84680       -0.20870       -0.72620
H          0.29910       -0.17430        2.12340
H         -2.56820       -1.94310        3.09860
H         -3.21740       -1.91830        1.45160
H         -1.35020       -3.85300        1.62490
H          0.80740       -2.50890        0.90220
