16
gdb 4551	3.80996	1.75025	1.21762	3.1533	68.17	-0.1893	0.033	0.2223	969.0307	0.130822	-379.96937	-379.961112	-379.960168	-380.002839	29.454
C          0.01010        1.47140        0.01270
N          0.04130        0.02470       -0.01050
C          0.10830       -0.75030       -1.16450
C          0.11480       -2.04110       -0.71070
O          0.17100       -3.17010       -1.45300
N          0.05570       -2.09070        0.65050
C          0.01190       -0.82810        1.05090
C         -0.06000       -0.39710        2.47870
H          0.91110        1.88810       -0.44960
H         -0.86490        1.85110       -0.52550
H         -0.04130        1.81930        1.04460
H          0.14280       -0.31760       -2.14860
H          0.15820       -3.90060       -0.82280
H          0.79980        0.21540        2.77430
H         -0.96710        0.17890        2.69630
H         -0.06900       -1.29270        3.10100
