11
gdb 3796	8.25739	2.07363	1.67828	3.9986	48.88	-0.2498	-0.0573	0.1925	688.0612	0.078692	-372.694726	-372.688469	-372.687525	-372.725085	21.33
C          0.01200        1.44630        0.06360
N         -0.08930        0.00550       -0.09920
C          0.58760       -0.62180       -1.08890
N          1.18860       -0.05130       -2.10370
O          1.65960       -1.12220       -2.82920
N          1.32340       -2.28640       -2.19190
N          0.67970       -2.00700       -1.14620
H          1.02720        1.77220        0.32580
H         -0.27250        1.93880       -0.86970
H         -0.67890        1.75980        0.84770
H         -0.24910       -0.55660        0.72110
