18
gdb 8208	2.71938	2.41114	1.66298	2.1437	67.34	-0.2226	0.0748	0.2974	846.523	0.153356	-384.930845	-384.923088	-384.922144	-384.962224	30.352
C         -0.07730        1.48900        0.02500
C          0.02180       -0.00720        0.05640
C          1.33040       -0.73400       -0.22920
C          0.68020       -0.80050        1.14420
O          1.26970       -0.14710        2.22580
C         -0.24780       -1.97590        1.41700
C         -1.16030       -1.98170        0.17460
O         -1.16740       -0.64920       -0.34270
H          0.80500        1.93140        0.49330
H         -0.15510        1.85850       -1.00230
H         -0.96360        1.81850        0.57580
H          1.34090       -1.61030       -0.86930
H          2.21130       -0.10480       -0.30290
H          2.07240       -0.62400        2.46270
H          0.26430       -2.93410        1.55230
H         -0.80890       -1.75430        2.33070
H         -0.77940       -2.67790       -0.58600
H         -2.19370       -2.26110        0.39600
