14
gdb 5212	8.93818	1.00298	0.90689	3.4247	76.88	-0.2059	0.0135	0.2195	1235.8657	0.10841	-341.604162	-341.596527	-341.595582	-341.638008	26.587
C         -0.04200        1.46440        0.02520
C          0.00320        0.01090        0.02030
C          0.03280       -1.19470        0.01820
C          0.06920       -2.61020        0.01530
C          1.15800       -3.41820       -0.23500
N          0.69450       -4.70520       -0.12200
C         -0.63360       -4.63210        0.18680
N         -1.04680       -3.39370        0.27810
H          0.66490        1.88570        0.74920
H          0.20670        1.87750       -0.95920
H         -1.04190        1.82440        0.29160
H          2.18270       -3.19110       -0.47430
H          1.23710       -5.54350       -0.24500
H         -1.23980       -5.51400        0.33130
