15
gdb 19810	4.16766	2.03999	1.81274	2.2424	63.98	-0.2373	-0.0328	0.2045	757.2472	0.119473	-362.59907	-362.592939	-362.591995	-362.629246	24.417
O         -0.01430       -0.02540        0.03320
C         -0.03140        1.16770        0.03370
C         -1.13370        2.25350       -0.01460
N         -0.07460        3.31310       -0.03120
C          0.36440        3.85110        1.28270
C          0.43190        2.85290        2.40730
C          1.52780        2.86780        1.37380
C          1.03470        2.29160        0.03580
H         -1.71690        2.23990       -0.94160
H         -1.82300        2.27050        0.83570
H          0.33350        4.92010        1.45810
H          0.71520        3.29010        3.35960
H         -0.25590        2.01810        2.50220
H          2.56670        3.03990        1.62050
H          1.76100        2.28580       -0.78130
