16
gdb 20851	3.2452	1.85325	1.28844	1.4262	66.65	-0.2124	0.0104	0.2227	949.8089	0.132602	-376.11488	-376.106868	-376.105924	-376.147632	28.953
C         -0.12840        1.54410       -0.02400
C          0.10010        0.02210       -0.04930
C          0.73890       -0.50700        1.19550
N          2.04540       -0.76800        1.28740
N          2.19730       -1.19880        2.52790
N          1.09460       -1.24520        3.28220
C          0.15120       -0.80890        2.44950
N         -1.19540       -0.76630        2.80410
H          0.82130        2.07630        0.08360
H         -0.60840        1.88180       -0.94770
H         -0.76990        1.84340        0.81260
H         -0.85860       -0.48880       -0.20270
H          0.73720       -0.23670       -0.90020
H          3.08820       -1.50470        2.87970
H         -1.32470       -0.87840        3.80130
H         -1.67220        0.06350        2.47810
