21
gdb 17654	3.37698	1.70206	1.48961	1.008	78.24	-0.2219	0.0858	0.3077	969.2248	0.188588	-329.087178	-329.078999	-329.078054	-329.119405	31.977
C         -0.13860        1.38700       -0.34450
C          0.07330       -0.08920       -0.01080
C          1.17440       -0.73380       -0.93020
C          2.20070       -0.51750        0.21530
C          1.02290       -0.29990        1.20200
N         -1.24710       -0.69040        0.14890
C         -1.92060       -1.23440       -1.02210
C         -1.42940       -2.12990        0.06390
H          0.81560        1.91780       -0.41830
H         -0.65890        1.49440       -1.30260
H         -0.74660        1.86430        0.42950
H          1.00680       -1.79560       -1.12870
H          1.36810       -0.23450       -1.88330
H          2.87760       -1.34670        0.43120
H          2.80130        0.38420        0.07230
H          1.09730        0.52160        1.91920
H          0.76850       -1.21490        1.74390
H         -2.97800       -1.00310       -1.12030
H         -1.37210       -1.26340       -1.96270
H         -0.57720       -2.76660       -0.16480
H         -2.12290       -2.55350        0.78560
