16
gdb 9331	5.15147	0.91612	0.78927	1.7421	63.91	-0.2536	-0.0973	0.1562	1399.5902	0.126331	-420.880868	-420.871589	-420.870644	-420.916039	30.667
C         -0.05230        1.38230       -0.05250
C         -0.19770       -0.09710        0.25620
O          0.83390       -0.46860        1.15580
C          0.79410       -1.81370        1.50900
C          1.92180       -2.13260        2.46770
O          2.73920       -1.34480        2.87210
C          1.99980       -3.58940        2.94310
O          1.22880       -4.44470        2.59400
H          0.92160        1.58480       -0.50650
H         -0.83470        1.70320       -0.74630
H         -0.13330        1.97430        0.86320
H         -1.18270       -0.30790        0.70490
H         -0.12750       -0.69760       -0.66600
H         -0.15670       -2.10000        1.99510
H          0.88830       -2.48730        0.63730
H          2.84340       -3.76790        3.64280
