16
gdb 20218	3.41503	3.15234	2.1834	0.1759	66.05	-0.2135	0.0586	0.2721	674.0839	0.133404	-342.686617	-342.680864	-342.67992	-342.717025	23.214
C         -0.03220        1.47870       -0.19090
C          1.25970        2.25670        0.13570
N          2.33280        1.42290        0.67810
C          2.57380        0.07720        0.20500
C          1.25530       -0.71690       -0.12830
C          0.75240       -0.46320        1.25670
C          2.07090        0.33080        1.59000
N          0.04830        0.04700        0.10050
H         -0.88190        1.86980        0.37760
H         -0.29060        1.57160       -1.25050
H          1.66070        2.74690       -0.75720
H          1.06950        3.04500        0.87100
H          3.56200       -0.19990       -0.14420
H          1.21590       -1.61280       -0.73740
H          0.24010       -1.12070        1.94980
H          2.58620        0.29220        2.54300
