13
gdb 21458	5.99294	1.45434	1.17033	2.2797	63.11	-0.2316	-0.0117	0.2198	941.8885	0.097733	-394.776004	-394.769362	-394.768418	-394.807251	24.297
N          0.26600        1.28180        0.00380
C          0.06760        0.02410        0.00140
N         -1.18030       -0.55280        0.01270
C         -2.40650        0.08810        0.02740
N         -3.49440       -0.65670        0.03520
O         -4.55250        0.24660        0.04960
C         -4.05890        1.49220        0.04970
C         -2.70340        1.48300        0.03610
H          1.26340        1.47860       -0.00600
H          0.85090       -0.74220       -0.00960
H         -1.23160       -1.55930        0.00910
H         -4.79030        2.28570        0.06030
H         -2.00140        2.29510        0.03220
