18
gdb 5521	2.99052	1.84625	1.23549	0.6747	75.05	-0.2067	0.0273	0.234	1018.8189	0.153665	-347.849095	-347.840755	-347.83981	-347.882431	30.197
C         -0.00760        1.61870        0.36370
C         -0.02970        0.14390       -0.07600
C         -1.40400       -0.42360       -0.18210
C         -2.16820       -0.87830       -1.21810
C         -1.80500       -0.95340       -2.66960
C         -3.42150       -1.28150       -0.63390
C         -3.32190       -1.04110        0.69560
O         -2.10310       -0.51930        0.99240
H          1.02060        1.98310        0.45110
H         -0.53520        2.24960       -0.35820
H         -0.49620        1.73880        1.33460
H          0.46360        0.03670       -1.04700
H          0.55560       -0.45250        0.63620
H         -1.87410       -1.98010       -3.04750
H         -2.47620       -0.34130       -3.28340
H         -0.78500       -0.60400       -2.85030
H         -4.27370       -1.69590       -1.15100
H         -3.98950       -1.17810        1.53050
