17
gdb 11614	5.68295	0.81807	0.76058	1.3503	75.84	-0.238	0.0221	0.26	1497.1377	0.141144	-363.801458	-363.792438	-363.791494	-363.83633	31.674
C          0.06720        1.57340       -0.11090
C         -0.02540        0.04360       -0.01140
O          0.48060       -0.59020       -1.18510
C          0.63080       -0.45420        1.20220
C          1.21000       -0.85300        2.18290
C          1.90910       -1.34540        3.33550
C          1.20820       -2.24610        4.30150
N          2.25620       -2.78640        3.43290
H          1.11430        1.89220       -0.13610
H         -0.42470        1.90680       -1.02830
H         -0.41300        2.05070        0.74820
H         -1.08420       -0.24220        0.01370
H          1.43920       -0.48990       -1.17420
H          2.68930       -0.69550        3.72350
H          1.46760       -2.19050        5.35490
H          0.17070       -2.48860        4.09240
H          1.83090       -3.27590        2.64890
