18
gdb 11541	6.25157	1.00949	0.9403	1.7054	69.41	-0.2654	0.0181	0.2835	1286.5312	0.151883	-384.965332	-384.956428	-384.955484	-385.000366	31.119
C          0.05640        1.41190        0.18240
C         -0.09170       -0.06100       -0.19080
C          0.72060       -0.44070       -1.41200
O          1.40110        0.30810       -2.06480
O          0.56790       -1.75880       -1.68920
C          1.28500       -2.24940       -2.80780
C          2.49500       -3.09420       -2.54630
C          1.19820       -3.72400       -3.02010
H          1.09860        1.65720        0.40160
H         -0.26420        2.05730       -0.63900
H         -0.54720        1.64590        1.06370
H          0.21530       -0.71830        0.63130
H         -1.13750       -0.32100       -0.39400
H          1.28400       -1.56720       -3.64840
H          3.33030       -3.01950       -3.23320
H          2.76850       -3.25150       -1.50930
H          0.62900       -4.29010       -2.29180
H          1.13050       -4.09310       -4.03710
