18
gdb 10993	2.90297	2.36501	1.73656	2.3166	66.58	-0.2493	0.0675	0.3168	815.7617	0.155129	-384.928423	-384.921254	-384.92031	-384.959134	29.169
O         -0.16910        1.38260       -0.11770
C         -0.00760       -0.01850       -0.01700
C          0.09460       -0.61590        1.41810
C         -1.42440       -0.31900        1.56130
C         -1.41540       -0.68070        0.03480
O         -2.41460       -0.31190       -0.85180
C         -1.06490       -2.17140        0.05140
C          0.10100       -2.12660        1.09730
H          0.67500        1.80580        0.06380
H          0.70360       -0.39090       -0.76850
H          0.82540       -0.24550        2.13740
H         -2.01140       -0.95030        2.23380
H         -1.63310        0.73610        1.73280
H         -2.38830        0.65050       -0.91660
H         -1.91150       -2.78280        0.37400
H         -0.74610       -2.52390       -0.93350
H          1.05390       -2.45990        0.67520
H         -0.10460       -2.73370        1.98270
