15
gdb 2078	4.74903	2.56399	1.7672	3.9574	57.81	-0.2288	0.0339	0.2627	700.0563	0.128749	-341.867094	-341.860853	-341.859909	-341.897222	23.479
O         -0.00860       -0.07240        0.06220
C         -0.01790        1.14410        0.04020
C         -1.32760        1.93060        0.04190
N         -1.15480        3.32250        0.44730
C         -0.10730        3.96910       -0.33160
C          1.22280        3.33290        0.05720
N          1.12610        1.88400       -0.05680
H         -1.74850        1.81600       -0.97520
H         -2.00420        1.41780        0.72960
H         -2.03200        3.82150        0.35320
H         -0.25360        3.87070       -1.42400
H         -0.08070        5.03590       -0.09200
H          2.01990        3.69160       -0.60350
H          1.47540        3.62720        1.08520
H          1.97310        1.33570       -0.01200
