17
gdb 2152	3.50196	2.76747	1.77536	1.4717	66.05	-0.2389	0.0226	0.2615	756.0014	0.148871	-309.737802	-309.730478	-309.729534	-309.769031	27.216
C         -0.31550        1.51020        0.08990
C         -0.08650        0.03290        0.03420
C          0.05390       -0.74290       -1.04370
C          0.30230       -2.19330       -0.71080
C          0.10460       -2.24070        0.82640
C          0.11740       -0.76770        1.30780
O          1.32120       -0.37730        1.97770
H          0.45370        1.99250        0.70370
H         -0.30540        1.96450       -0.90460
H         -1.27970        1.74240        0.56040
H          0.01130       -0.38350       -2.06780
H         -0.39000       -2.86330       -1.23410
H          1.30930       -2.50580       -1.02020
H         -0.86200       -2.69560        1.06260
H          0.87010       -2.81890        1.35000
H         -0.66340       -0.57880        2.05300
H          2.03270       -0.41990        1.32850
