19
gdb 15681	3.00111	1.82625	1.31331	2.9527	72.26	-0.2548	0.0296	0.2844	991.3451	0.167018	-365.093951	-365.085889	-365.084945	-365.126629	29.841
C         -0.26650        1.40170        0.17790
C         -0.06730       -0.09280       -0.08330
C          0.84560       -0.39820       -1.29360
C          1.13650       -1.90090       -1.47080
C          0.01280       -2.34750       -2.41420
O         -0.29380       -1.19180       -3.21120
C          0.16960       -0.05400       -2.61010
N          0.03570        1.10580       -3.09550
H          0.68630        1.88510        0.42040
H         -0.67460        1.90360       -0.70230
H         -0.94620        1.56020        1.02090
H          0.38040       -0.56610        0.79940
H         -1.04110       -0.57860       -0.22950
H          1.76170        0.18980       -1.19750
H          2.10820       -2.04850       -1.95160
H          1.13650       -2.45480       -0.52900
H          0.29780       -3.15600       -3.09160
H         -0.88930       -2.65220       -1.86950
H         -0.47600        1.06430       -3.97920
