18
gdb 7533	4.73588	1.12159	1.04614	1.9409	69.09	-0.243	-0.024	0.2189	1164.3166	0.150456	-384.934744	-384.925528	-384.924584	-384.969066	32.832
C          0.04460        1.43900       -0.26840
C          0.04060       -0.04030        0.04280
C          1.33100       -0.84060        0.00180
C          0.64630       -0.56650        1.31910
O          1.21540        0.39380        2.17530
C         -0.05380       -1.69820        2.06280
C          0.91980       -2.57960        2.81350
O          0.97490       -3.77910        2.72240
H          0.90810        1.92940        0.18610
H          0.07580        1.60970       -1.34960
H         -0.85540        1.92560        0.12260
H         -0.84500       -0.57230       -0.29580
H          1.31750       -1.85010       -0.39530
H          2.24290       -0.28710       -0.20090
H          2.12860        0.14530        2.34910
H         -0.73930       -1.24820        2.79460
H         -0.63350       -2.32630        1.38140
H          1.61850       -2.02710        3.48430
