16
gdb 9242	5.87388	0.81721	0.73836	1.6971	84.06	-0.2432	-0.0192	0.224	1504.1596	0.126802	-346.536764	-346.527328	-346.526384	-346.571368	32.905
C          0.03000        1.40850        0.04960
O         -0.07800        0.00380       -0.02800
C          0.62080       -0.57170       -1.12590
C          2.12540       -0.72020       -0.84080
C          0.01030       -1.86750       -1.41730
C         -0.46660       -2.94580       -1.68680
C         -1.00520       -4.16060       -1.97990
C         -1.48210       -5.23800       -2.24390
H          1.05690        1.74610        0.25190
H         -0.31860        1.89390       -0.87530
H         -0.60820        1.72770        0.87660
H          0.49100        0.07220       -2.01350
H          2.57950        0.25840       -0.66320
H          2.27500       -1.34670        0.04160
H          2.63010       -1.18320       -1.69300
H         -1.90210       -6.18630       -2.47080
