15
gdb 8780	3.66522	1.2946	1.16903	3.8678	64.45	-0.2594	-0.0158	0.2436	1059.82	0.117438	-395.983215	-395.974132	-395.973188	-396.017205	31.642
C         -0.09370        1.42190        0.03620
N         -0.02300       -0.02880        0.01020
C          0.58400       -0.58880       -0.95500
N          1.15360        0.00370       -2.07450
C          0.58340       -2.11590       -1.01110
O         -0.28840       -2.61050       -2.00920
C          1.96070       -2.62600       -1.21780
N          3.04070       -2.98140       -1.42710
H          0.88450        1.90530       -0.12200
H         -0.78290        1.80610       -0.72960
H         -0.46820        1.74660        1.00950
H          1.24840        1.00790       -2.05000
H          1.96930       -0.45810       -2.45530
H          0.20770       -2.47090       -0.05030
H         -0.12530       -2.10860       -2.81710
