17
gdb 20546	4.4468	1.35687	1.34369	0.5254	69.2	-0.2574	0.0006	0.258	1000.8932	0.143954	-360.059737	-360.051881	-360.050937	-360.092834	28.425
C         -0.02520        1.57940        0.17720
C         -0.03830        0.04840        0.01870
C          0.84700       -0.62770        1.08080
C         -1.43980       -0.49300        0.04890
N         -1.97580       -1.12580       -0.99940
N         -3.19710       -1.43960       -0.58280
N         -3.51800       -1.07150        0.64850
C         -2.41000       -0.46380        1.07310
H          0.99720        1.96440        0.10540
H         -0.62810        2.06300       -0.59680
H         -0.42640        1.87890        1.15180
H          0.36300       -0.19780       -0.97060
H          0.48120       -0.41750        2.09190
H          0.86420       -1.71340        0.94930
H          1.87550       -0.25840        1.01530
H         -3.84620       -1.93330       -1.17330
H         -2.35970       -0.04510        2.06560
