20
gdb 8359	5.19001	1.14812	1.12053	1.6915	75.74	-0.2305	0.0923	0.3228	1170.1916	0.176508	-348.947096	-348.938995	-348.938051	-348.979975	30.696
C          0.00320        1.50430       -0.08090
C         -0.00800       -0.02160        0.03440
C         -1.42630       -0.60610        0.06230
C         -1.44930       -2.10510        0.10910
C         -0.75120       -3.09550        1.08740
C         -1.33790       -3.88540       -0.10160
C         -2.65270       -3.08350        0.01150
O         -0.81340       -2.85180       -1.02080
H          1.02590        1.89320       -0.09910
H         -0.49520        1.83610       -0.99850
H         -0.51580        1.97190        0.76360
H          0.53750       -0.46690       -0.80490
H          0.52590       -0.32680        0.94310
H         -1.97880       -0.22550        0.93190
H         -1.98190       -0.28240       -0.82750
H          0.33760       -3.03780        1.11150
H         -1.19540       -3.23970        2.07610
H         -1.18430       -4.92710       -0.38230
H         -3.27400       -3.22650        0.90000
H         -3.23220       -3.01090       -0.91010
