13
gdb 2641	19.97251	0.87279	0.84511	0.4809	52.1	-0.2633	-0.0414	0.2219	1227.0498	0.097123	-381.584942	-381.576709	-381.575764	-381.619217	25.501
O         -0.12070        0.07790        0.46940
C          0.09980        1.01880       -0.24360
C          1.34080        1.88810       -0.12240
O          1.27400        2.88850       -1.10820
C          2.37130        3.76760       -1.10420
C          2.16640        4.78750       -2.21250
O          2.94520        5.66990       -2.45150
H         -0.58910        1.33530       -1.05730
H          1.37950        2.31350        0.89430
H          2.23390        1.25210       -0.24060
H          2.46890        4.30040       -0.14360
H          3.32340        3.23900       -1.27840
H          1.22410        4.64130       -2.78490
