17
gdb 9513	2.73125	1.96526	1.58503	4.0848	64.6	-0.2531	0.0256	0.2787	883.3658	0.142017	-401.021517	-401.013228	-401.012284	-401.053929	30.479
C         -0.08540        1.60550       -0.05970
C         -0.05160        0.08120       -0.06990
C         -1.43710       -0.53760        0.16850
O         -1.92830       -0.19460        1.44770
C          0.81160       -0.58520       -1.19130
N          1.70950       -1.06020       -0.12910
C          0.96120       -0.56860        0.90540
O          1.02590       -0.67650        2.10710
H          0.92050        2.03130       -0.12530
H         -0.67280        1.98160       -0.90490
H         -0.55460        1.95870        0.86120
H         -2.16090       -0.15590       -0.56120
H         -1.37940       -1.63120        0.03580
H         -1.24210       -0.43290        2.08750
H          0.31210       -1.38920       -1.74250
H          1.28000        0.10980       -1.89430
H          2.46510       -1.73000       -0.14030
