20
gdb 10696	2.77449	1.56179	1.42019	2.8065	75.25	-0.2459	-0.021	0.2249	1026.6079	0.175027	-349.013648	-349.004539	-349.003595	-349.047062	33.637
C          0.25530        1.39610       -0.33140
C          0.03690       -0.06040        0.10990
C          0.59950       -0.31690        1.51760
C         -1.42660       -0.48150       -0.00780
C         -1.95310       -0.94630       -1.36400
C         -1.75170       -1.94850       -0.28150
C         -2.43200        0.22520        0.83360
O         -3.61810       -0.01460        0.83110
H          1.32010        1.64970       -0.31800
H         -0.12030        1.56240       -1.34590
H         -0.25580        2.10160        0.33310
H          0.59680       -0.69930       -0.58630
H          0.46770       -1.36290        1.81150
H          1.66890       -0.08610        1.55560
H          0.10500        0.30600        2.27110
H         -2.97150       -0.66310       -1.60340
H         -1.25050       -0.92030       -2.19010
H         -0.90750       -2.62660       -0.34680
H         -2.63420       -2.34170        0.20980
H         -2.02480        1.02030        1.49530
