17
gdb 16710	4.01453	1.77955	1.70481	3.3056	68.38	-0.2115	-0.0078	0.2036	841.9541	0.14324	-363.840242	-363.833325	-363.832381	-363.871112	26.962
C          0.04460        1.44960       -0.07510
N         -0.00090        0.00870        0.09930
C         -1.36890       -0.55170        0.32740
C         -1.12270       -1.40550        1.59120
C         -0.29050       -0.39980        2.46200
C          0.72960       -0.50660        1.27370
C          0.26760       -1.98150        1.24670
O          0.77250       -3.05950        1.18170
H          1.07830        1.76560       -0.24780
H         -0.53890        1.72140       -0.96060
H         -0.35260        2.02750        0.77980
H         -2.10770        0.23830        0.51670
H         -1.70670       -1.14310       -0.53020
H         -1.94140       -2.00820        1.97760
H         -0.74320        0.57890        2.63290
H          0.07380       -0.82970        3.39680
H          1.77130       -0.19910        1.33010
