13
gdb 8969	4.98509	1.02808	0.89863	3.4311	68.81	-0.2616	-0.0314	0.2302	1216.2518	0.092695	-361.413955	-361.405329	-361.404385	-361.448197	30.004
O          0.08510        0.13720       -0.88340
C          0.03810        1.18850       -0.27090
N          1.10920        1.75120        0.36210
C          2.43810        1.15940        0.28550
C          3.45920        2.14280       -0.06000
C          4.29630        2.96460       -0.31840
C         -1.18510        1.96830       -0.13750
C         -2.21050        2.58860       -0.04390
H          0.99900        2.64680        0.80980
H          2.69870        0.67400        1.23630
H          2.37750        0.36840       -0.46870
H          5.04140        3.68090       -0.56230
H         -3.12370        3.12720        0.03030
