16
gdb 11523	5.25251	1.11155	0.97237	3.6119	66.23	-0.2514	0.0103	0.2617	1159.4808	0.129681	-379.889097	-379.880771	-379.879827	-379.922348	29.618
O          0.20250        1.49210       -0.10250
C          0.12130        0.08040       -0.04770
C          0.77690       -0.61770       -1.25290
N          0.03600       -0.31020       -2.46060
C          0.46130        0.86020       -3.22110
C          0.73970       -0.51130       -3.72520
C          0.69230       -0.43730        1.21260
N          1.17630       -0.82520        2.18760
H          1.12430        1.74760        0.01940
H         -0.94850       -0.15130       -0.06760
H          1.84190       -0.32070       -1.30250
H          0.74880       -1.70100       -1.08920
H         -0.33770        1.45830       -3.64760
H          1.30540        1.43390       -2.84420
H          1.77150       -0.85700       -3.68500
H          0.14690       -0.94090       -4.52710
