11
gdb 23718	5.87275	1.4784	1.18108	2.216	55.08	-0.2567	-0.0437	0.213	868.277	0.072602	-446.709135	-446.703401	-446.702457	-446.739158	21.795
F         -0.00870        0.02590        0.00370
C         -0.01090        1.36040        0.01050
C         -1.21580        2.04650        0.03000
N         -1.27060        3.38170        0.03760
C         -0.13190        4.03490        0.02570
F         -0.21310        5.36260        0.03370
C          1.13140        3.44750        0.00600
C          1.18890        2.06130       -0.00180
H         -2.15440        1.50040        0.03970
H          2.02280        4.06160       -0.00270
H          2.13200        1.52780       -0.01710
