14
gdb 18561	3.80879	2.09695	1.66288	2.0904	56.72	-0.2392	-0.0453	0.1939	767.6318	0.107488	-419.671047	-419.664618	-419.663674	-419.702103	23.914
O          0.03920       -0.01410       -0.34950
C          0.01060        1.14390       -0.06120
C         -1.10290        2.12340        0.36240
C         -0.01160        3.20190        0.62290
O          0.35400        3.39650        1.97750
C          1.30150        2.39830        2.30270
O          2.03240        2.11740        1.12520
C          1.10900        2.25640        0.07230
H         -1.78910        2.36650       -0.45530
H         -1.69040        1.82000        1.23330
H         -0.16540        4.17590        0.16000
H          1.98490        2.78420        3.06270
H          0.79830        1.48690        2.66930
H          1.63900        2.50940       -0.84820
