14
gdb 16295	3.49251	1.78984	1.47846	3.8785	63.58	-0.2638	0.0025	0.2663	854.7453	0.108228	-378.686112	-378.679189	-378.678245	-378.717242	26.173
O          0.05620        1.39900       -0.09940
C          0.07720        0.01430        0.00700
C          0.30480       -0.64020        1.42710
C         -1.07980       -1.27400        1.32380
N         -2.02930       -0.16130        1.13650
C         -1.29810       -0.70070       -0.04620
C         -1.98220       -1.23890       -1.17190
N         -2.52000       -1.67600       -2.09960
H         -0.65620        1.70630        0.47780
H          0.77380       -0.36690       -0.74120
H          1.11920       -1.36690        1.42090
H          0.43610        0.06350        2.25160
H         -1.41470       -2.23260        1.69830
H         -2.97630       -0.53800        1.11580
