14
gdb 5435	3.51044	1.95768	1.26674	4.3564	73.24	-0.2098	0.0088	0.2186	909.8694	0.107623	-341.601345	-341.593875	-341.592931	-341.632986	27.581
C         -0.00290        1.51920        0.09300
C          0.01410        0.03420       -0.00760
C          0.00050       -0.81250       -1.10050
N          0.02750       -2.13900       -0.69140
C          0.05650       -2.09370        0.61390
N          0.04990       -0.80700        1.07990
C         -0.03560       -0.42520       -2.46160
C         -0.06650       -0.07340       -3.61320
H          0.89090        1.90850        0.59530
H         -0.03610        1.94450       -0.91210
H         -0.87790        1.88480        0.64390
H          0.08280       -2.94530        1.27740
H          0.06800       -0.52020        2.04470
H         -0.09350        0.22320       -4.63200
