18
gdb 13791	3.18841	1.67466	1.21761	3.2353	69.28	-0.2431	0.0425	0.2856	1022.2296	0.153877	-381.140463	-381.131876	-381.130932	-381.173544	31.673
C         -0.29990        1.42820       -0.37440
C         -0.07830       -0.07680       -0.18460
C          0.86770       -0.67000       -1.20800
C          0.87220       -2.14170       -1.49760
N          0.41710       -1.18110       -2.49260
C         -0.89650       -1.10200       -2.96790
N         -1.35520       -2.29700       -3.48490
O         -1.55960       -0.08440       -2.96620
H          0.64950        1.97370       -0.32840
H         -0.76590        1.61760       -1.34310
H         -0.94890        1.82660        0.41150
H          0.34760       -0.27070        0.80890
H         -1.03730       -0.60420       -0.22540
H          1.82580       -0.15490       -1.27870
H          1.80050       -2.66210       -1.72130
H          0.11420       -2.74550       -1.00260
H         -0.67410       -2.98420       -3.76680
H         -2.16130       -2.20660       -4.08340
