16
gdb 14368	4.17438	2.21058	1.92697	1.5957	63.99	-0.2392	0.0564	0.2956	736.1291	0.131749	-383.636911	-383.630874	-383.629929	-383.666907	24.425
C         -0.06060        1.57240        0.02250
C          1.42840        1.22920        0.02030
O          1.14280        0.07400        0.94550
C          0.10500        0.03050       -0.12150
C         -0.88300       -0.91870       -0.73480
C         -0.73490       -0.40280       -2.22550
O          0.48360        0.39470       -2.35390
C          1.18910        0.20890       -1.15080
H         -0.45970        1.90390        0.98120
H         -0.45740        2.12030       -0.83310
H          2.30180        1.82960        0.27440
H         -0.55100       -1.95650       -0.64390
H         -1.91250       -0.83770       -0.38000
H         -0.68600       -1.24180       -2.92720
H         -1.57560        0.23770       -2.50800
H          1.95030       -0.57590       -1.20470
