15
gdb 8815	2.98458	1.53069	1.05121	2.8037	62.07	-0.2828	-0.0502	0.2326	1066.6426	0.116318	-399.826706	-399.817823	-399.816879	-399.861119	30.532
C          0.53900        1.64610       -0.25340
C         -0.18140        0.40740        0.31140
C         -0.22240       -0.69270       -0.65370
N         -0.24550       -1.55610       -1.42160
C          0.39990       -0.02520        1.67530
O          0.88850        0.79400        2.41760
C          0.30360       -1.47840        2.09930
O          0.74310       -1.65860        3.41010
H          1.56640        1.40050       -0.53180
H          0.01750        2.01830       -1.13720
H          0.56320        2.42210        0.51210
H         -1.22570        0.67620        0.53210
H         -0.74030       -1.81130        1.97700
H          0.89200       -2.07600        1.38290
H          1.07400       -0.79500        3.70020
