9
gdb 3897	5.90177	2.86064	1.92673	0.2386	48.24	-0.2681	-0.1008	0.1674	577.0287	0.05495	-375.30706	-375.301908	-375.300964	-375.336105	18.514
O         -0.00010       -0.03420       -0.18970
C         -0.01390        1.16660        0.00190
C         -1.23100        1.96910        0.14840
N         -1.24690        3.24020        0.35130
O         -0.04510        3.90230        0.43860
N          1.17140        3.27290        0.31980
C          1.18460        2.00170        0.11690
H         -2.20510        1.49120        0.08700
H          2.16930        1.55030        0.03000
