15
gdb 1987	6.58685	1.60765	1.43529	1.836	58.33	-0.266	0.0164	0.2825	869.4901	0.123256	-345.676156	-345.668462	-345.667517	-345.709632	26.283
C         -0.14230        1.41130       -0.04890
C          0.04210       -0.08530        0.02280
O          1.06230       -0.65630        0.30800
O         -1.11460       -0.71660       -0.29710
C         -1.08390       -2.13260       -0.25980
C         -1.78670       -2.81590        0.87380
C         -2.39220       -2.80240       -0.51770
H          0.79180        1.90430        0.21740
H         -0.44440        1.70400       -1.05850
H         -0.93880        1.72490        0.63180
H         -0.16150       -2.54940       -0.64360
H         -1.36320       -3.73640        1.25900
H         -2.25030       -2.17920        1.61850
H         -3.24880       -2.15750       -0.67740
H         -2.39490       -3.71550       -1.10190
