16
gdb 2712	8.68074	1.10067	1.04667	3.9112	59.76	-0.2485	0.0346	0.283	1108.154	0.136001	-362.92816	-362.919857	-362.918913	-362.961983	27.606
C         -0.28700        1.38010        0.33200
O         -0.03180        0.02020        0.06550
C         -1.20900       -0.74310       -0.11310
C         -0.79010       -2.18970       -0.32530
N         -0.02480       -2.68090        0.80550
C         -0.33590       -3.81760        1.47940
O         -1.24620       -4.57150        1.20380
H          0.67840        1.87640        0.45660
H         -0.82960        1.86110       -0.49630
H         -0.87780        1.51140        1.25180
H         -1.85840       -0.66050        0.77370
H         -1.77960       -0.38300       -0.98480
H         -1.66460       -2.83510       -0.42950
H         -0.19810       -2.26080       -1.24660
H          0.72720       -2.09770        1.13680
H          0.35300       -3.98920        2.33060
