20
gdb 8157	3.82864	1.57316	1.32731	1.5508	74.06	-0.2368	0.0758	0.3126	1001.7681	0.177574	-349.005371	-348.997466	-348.996521	-349.037212	31.414
C          0.04130        1.56540        0.01780
C          0.06040        0.03870       -0.00900
C          0.84360       -0.57450       -1.20200
C          1.27320       -1.96150       -0.73210
C          2.52060       -2.04930        0.13240
C          1.17850       -1.99650        0.78490
O          0.80270       -3.13900        1.49550
C          0.67060       -0.62550        1.25080
H          1.05770        1.96680        0.10660
H         -0.39860        1.97460       -0.89820
H         -0.54090        1.94540        0.86420
H         -0.97510       -0.31990       -0.09130
H          0.22530       -0.61870       -2.10370
H          1.71390        0.04850       -1.44860
H          1.01480       -2.83620       -1.31840
H          3.02310       -3.01010        0.16020
H          3.17740       -1.18590        0.19730
H         -0.15260       -3.23770        1.41620
H          1.48740       -0.01600        1.65890
H         -0.06390       -0.74390        2.05340
