13
gdb 1210	6.54396	1.36072	1.26328	3.9932	55.9	-0.2684	0.0049	0.2732	925.5742	0.100838	-340.682075	-340.674173	-340.673229	-340.715661	25.984
C         -0.09460        1.47700       -0.09210
C         -0.01950       -0.03260       -0.22420
O          0.83830       -0.60200       -0.86910
N         -1.01240       -0.71790        0.43750
C         -1.13690       -2.15440        0.30700
C         -2.40450       -2.55510       -0.31750
N         -3.41660       -2.85880       -0.78420
H          0.91750        1.88180       -0.12030
H         -0.64500        1.88240       -0.94760
H         -0.59550        1.80120        0.82400
H         -1.74050       -0.21090        0.91310
H         -0.29610       -2.47810       -0.31490
H         -1.05230       -2.65650        1.27820
