14
gdb 13736	3.15547	1.61246	1.34187	4.0977	62.99	-0.2589	-0.039	0.2198	928.937	0.106024	-378.721084	-378.713078	-378.712134	-378.754199	27.952
C         -0.70480        0.60860        0.88260
C          0.28440        0.01700       -0.09130
O          1.44490        0.35270       -0.15190
C         -0.18250       -1.07340       -1.03380
N         -1.43590       -1.77610       -0.76110
C         -1.36570       -0.94670       -1.96510
C         -2.21360        0.22060       -2.01930
N         -2.88760        1.15670       -2.09530
H         -0.17350        1.26270        1.57420
H         -1.46660        1.18670        0.34810
H         -1.23340       -0.18360        1.42000
H          0.65580       -1.62360       -1.45560
H         -1.37220       -2.76130       -1.00290
H         -1.24670       -1.43200       -2.93070
