20
gdb 6232	2.1041	2.09785	1.6113	1.7253	71.85	-0.2334	0.0706	0.3041	964.5292	0.173108	-386.131502	-386.121536	-386.120592	-386.164933	37.203
C         -0.08000        1.52890       -0.06530
C          0.02770        0.02430        0.05130
C          1.34750       -0.71110       -0.19050
C          1.37600       -1.98790       -0.99730
O          2.50400        0.07910       -0.33060
C          0.75770       -0.67830        1.19200
C          1.42500        0.09220        2.30860
O          0.21520       -1.91080        1.60870
H          0.88600        2.01140        0.10040
H         -0.42530        1.81650       -1.06510
H         -0.79360        1.94160        0.65660
H         -0.84710       -0.52570       -0.28900
H          1.36620       -1.76540       -2.07200
H          2.28620       -2.55490       -0.77680
H          0.51500       -2.61630       -0.76670
H          2.55330        0.36370       -1.25010
H          1.94890        0.97370        1.93930
H          0.68380        0.41450        3.05070
H          2.15130       -0.55110        2.81480
H         -0.55080       -1.71810        2.16060
