18
gdb 17191	4.98336	1.58773	1.42176	1.8258	73.06	-0.2323	0.0885	0.3208	937.9651	0.153176	-347.712282	-347.705088	-347.704144	-347.743227	28.64
C         -0.09520        1.56570       -0.00080
C         -0.01500        0.05120        0.01020
C          1.23790       -0.64750       -0.60190
O          2.04880       -0.13820        0.53470
C          0.79450       -0.65840        1.13880
C          0.92510       -1.89130        0.23750
C          0.13080       -3.13350        0.02740
C          1.61160       -3.19390        0.40430
H          0.87440        2.00100        0.24890
H         -0.40040        1.93200       -0.98700
H         -0.83600        1.92130        0.72370
H         -0.96790       -0.42850       -0.23560
H          1.66540       -0.56730       -1.60250
H          0.69090       -0.59130        2.22290
H         -0.59610       -3.42150        0.78050
H         -0.14640       -3.41060       -0.98490
H          2.31540       -3.51150       -0.35830
H          1.86570       -3.52240        1.40690
