15
gdb 11365	6.2936	1.30895	1.09963	4.1904	64.12	-0.2276	0.0084	0.236	1036.0096	0.120204	-396.035309	-396.027555	-396.026611	-396.067531	27.856
C         -0.00910        1.44660        0.00810
N         -0.01820       -0.00710        0.10110
C         -1.21810       -0.65780        0.02890
N         -2.37670       -0.10450        0.05280
C         -3.34560       -1.19720        0.03870
C         -2.54160       -2.50470       -0.00170
O         -2.90730       -3.65310        0.00250
N         -1.22390       -2.05680       -0.03770
H          0.99960        1.80540        0.22310
H         -0.32390        1.81180       -0.97780
H         -0.69930        1.85120        0.74990
H          0.75590       -0.47840       -0.34140
H         -3.99110       -1.18730        0.92560
H         -4.00780       -1.13800       -0.83350
H         -0.42950       -2.66910        0.05530
