17
gdb 3130	5.5204	1.95408	1.72624	1.9094	63.79	-0.229	0.0737	0.3027	785.0168	0.148139	-309.676327	-309.669328	-309.668384	-309.707325	26.188
C         -0.22370        1.53490       -0.01950
C          0.09370        0.03520        0.06940
C          0.77110       -0.49480       -1.16280
C          0.04010       -0.94010       -2.41960
C          0.96440       -1.88780       -1.71810
O          2.32020       -1.64190       -2.10070
C          2.24760       -0.31120       -1.52110
H          0.68850        2.12560       -0.15670
H         -0.88520        1.74570       -0.86590
H         -0.71490        1.88900        0.89200
H          0.72870       -0.15410        0.94520
H         -0.83400       -0.52560        0.23810
H         -1.02060       -1.12650       -2.27640
H          0.31430       -0.55930       -3.40020
H          0.70940       -2.87590       -1.35110
H          2.51280        0.47300       -2.24050
H          2.89970       -0.24140       -0.64130
