15
gdb 3203	3.40842	3.2297	1.99012	3.1588	61.18	-0.2357	-0.0087	0.227	679.7664	0.125066	-308.512092	-308.505571	-308.504627	-308.542332	24.479
C         -0.08380        1.61840       -0.02670
C          0.06840        0.10280       -0.04440
C          0.71740       -0.62380       -1.24060
C          2.15640       -0.26870       -1.35290
C          1.75190       -1.31050       -0.31330
C          1.12740       -0.60520        0.85390
O          1.26720       -0.67090        2.04260
H          0.84010        2.12630       -0.31850
H         -0.87570        1.94450       -0.70880
H         -0.34530        1.95640        0.98080
H         -0.89110       -0.36960        0.20360
H          0.17060       -1.09750       -2.04550
H          2.69180       -0.68530       -2.20000
H          2.52330        0.70350       -1.03810
H          2.16380       -2.31160       -0.33050
