15
gdb 18510	4.69177	1.42008	1.30282	5.7639	61.76	-0.2482	0.0146	0.2628	940.2674	0.11925	-399.76525	-399.758181	-399.757237	-399.797029	25.82
O          0.32420        0.10910       -0.04450
C          0.81270        1.18950        0.11060
O          0.22190        2.30160       -0.39370
C          0.82190        3.57770       -0.20590
C          1.16960        4.13990        1.22230
C          2.54080        4.52350        0.65750
N          3.19220        3.24730        0.30130
C          2.25040        3.87700       -0.65910
H          1.75370        1.39300        0.64210
H          0.13530        4.26250       -0.70600
H          0.52970        4.97720        1.50440
H          1.20750        3.41300        2.03570
H          3.12090        5.41270        0.86490
H          4.13330        3.45500       -0.03060
H          2.57390        4.14110       -1.65810
