15
gdb 2611	11.59947	0.95229	0.89454	0.4981	69.16	-0.2579	0.0391	0.297	1218.0276	0.122303	-271.318933	-271.31072	-271.309776	-271.351514	29.168
C         -0.04740       -1.23000       -0.00460
C         -0.04430       -0.02820        0.00260
C         -0.00760        1.42860        0.01070
C          1.42750        1.99050       -0.00100
C          1.43670        3.53170        0.00790
C          2.78320        4.08890       -0.00280
C          3.90380        4.52340       -0.01230
H         -0.06110       -2.29160       -0.01090
H         -0.55830        1.81320       -0.85830
H         -0.54000        1.80290        0.89550
H          1.97490        1.61570        0.86900
H          1.95660        1.62600       -0.88660
H          0.87900        3.90610       -0.86100
H          0.89740        3.89580        0.89270
H          4.88960        4.91740       -0.02080
