13
gdb 13335	6.17437	1.24492	1.14119	3.2112	55.65	-0.278	-0.0112	0.2669	990.4515	0.09582	-435.769694	-435.762732	-435.761788	-435.801962	23.854
O         -0.05620       -0.02590        0.05320
C         -0.02200        1.16360        0.08770
O          1.11280        1.86470       -0.16680
C          1.01170        3.27670       -0.17530
C          2.42370        3.89140       -0.10620
N          2.67570        4.40750       -1.45910
C          1.58870        4.26200       -2.08620
O          0.51340        3.71050       -1.44270
H         -0.88160        1.81370        0.33700
H          0.30780        3.60770        0.59280
H          2.48110        4.70890        0.61880
H          3.16010        3.13290        0.16920
H          1.39680        4.54520       -3.11400
