17
gdb 11769	4.4855	1.67761	1.52803	4.33	72.45	-0.3017	0.0288	0.3305	869.8037	0.145558	-326.74046	-326.734002	-326.733057	-326.770857	25.961
N          0.00770       -1.14210       -0.02570
C          0.00740        0.01440       -0.01200
C          0.01090        1.45970        0.00980
C         -0.29000        2.26620        1.31560
C          0.43260        3.40020        0.53390
C          1.33900        2.28290       -0.05700
C         -0.54690        3.66880       -0.62520
C         -0.87360        2.19400       -1.03090
H         -1.33950        2.40390        1.58850
H          0.28380        1.89870        2.16780
H          0.85620        4.26220        1.04710
H          2.08590        1.91710        0.64930
H          1.78420        2.43590       -1.04350
H         -1.43450        4.21740       -0.29950
H         -0.08200        4.23130       -1.43920
H         -0.57650        1.95320       -2.05420
H         -1.92940        1.93930       -0.91420
