20
gdb 11059	3.23876	2.18882	1.8538	1.6257	73.23	-0.2353	0.0773	0.3126	832.4659	0.179792	-349.026875	-349.019944	-349.018999	-349.05741	28.521
C         -0.03940        1.48820       -0.00360
C          0.00970       -0.02930        0.00920
C          0.73750       -0.68270       -1.19850
C          0.96730       -2.15420       -0.72810
C          0.35080       -2.13000        0.68400
C          0.72020       -0.73160        1.19230
O         -1.07720       -2.05780        0.54680
C         -1.36720       -0.71690        0.11880
H          0.96860        1.91500       -0.04110
H         -0.58680        1.86090       -0.87720
H         -0.53710        1.87880        0.89080
H          0.14130       -0.61680       -2.11380
H          1.68590       -0.17020       -1.39040
H          0.45710       -2.88970       -1.35380
H          2.03030       -2.41390       -0.69870
H          0.58610       -2.98590        1.31790
H          1.79730       -0.54260        1.22180
H          0.27930       -0.50370        2.16680
H         -2.01240       -0.22710        0.86210
H         -1.90270       -0.73650       -0.83970
