20
gdb 11462	4.03656	1.28768	1.18594	2.6147	70.62	-0.2518	0.0794	0.3312	1100.7866	0.177969	-386.14844	-386.140033	-386.139089	-386.181937	31.286
C          0.16080        1.54580        0.02130
C          0.02810        0.02000       -0.02520
C          0.88680       -0.59390       -1.14790
O          2.16220       -0.80450       -0.56260
C          1.92570       -1.33350        0.74560
C          3.16850       -1.04410        1.57320
O          4.32550       -1.61370        0.99670
C          0.62100       -0.66520        1.24000
H          1.21460        1.83610        0.09260
H         -0.25650        2.00940       -0.87900
H         -0.36280        1.96370        0.88720
H         -1.02450       -0.24890       -0.15670
H          0.45960       -1.54940       -1.49430
H          1.01620        0.06220       -2.01320
H          1.79530       -2.42480        0.66740
H          3.26680        0.04870        1.68730
H          3.06030       -1.47730        2.57350
H          4.32040       -1.34220        0.07130
H          0.82750        0.07470        2.02060
H         -0.06160       -1.40480        1.66500
