13
gdb 9814	3.22156	1.94766	1.3361	4.0202	59.87	-0.2944	-0.0956	0.1987	878.5823	0.093007	-398.596642	-398.588665	-398.587721	-398.62932	27.658
C         -0.16310        1.47140       -0.86700
C         -0.09170        0.22390       -0.02530
C          0.91040       -0.83900       -0.28350
O          1.05790        0.04770        0.81370
C         -1.37500       -0.18860        0.63660
O         -2.45000        0.28680        0.37170
C         -1.25500       -1.23920        1.67230
N         -1.21470       -2.07920        2.46550
H          0.81950        1.69230       -1.28830
H         -0.88380        1.34330       -1.67850
H         -0.48790        2.32320       -0.26330
H          0.70240       -1.87530       -0.02450
H          1.59550       -0.68400       -1.11540
