15
gdb 256	6.05601	2.21302	1.97997	3.6603	54.8	-0.2484	0.0348	0.2832	684.3066	0.130467	-287.72789	-287.72048	-287.719536	-287.760264	25.451
C         -0.03200        1.39380       -0.17780
C          0.06260       -0.09510        0.17370
C          0.80470       -0.33150        1.49390
N         -1.26720       -0.70120        0.21360
C         -1.66810       -1.70080       -0.61560
O         -0.99110       -2.21380       -1.48220
H          0.96600        1.83750       -0.24830
H         -0.54100        1.53630       -1.13480
H         -0.58690        1.94590        0.59060
H          0.58120       -0.62320       -0.63080
H          0.88300       -1.40020        1.71050
H          1.81520        0.08630        1.44840
H          0.28400        0.15000        2.33060
H         -1.92820       -0.36040        0.89520
H         -2.71360       -2.00730       -0.40880
