13
gdb 20000	3.56949	1.84748	1.40554	5.0492	58.79	-0.2869	-0.0063	0.2805	854.1986	0.094596	-398.550938	-398.543797	-398.542853	-398.582871	25.129
N          0.08650       -1.15070        0.39060
C          0.14590       -0.00590        0.24700
C          0.09820        1.42130        0.01420
O          0.66620        2.28250        1.00410
C          1.29800        2.24350       -0.26670
C          2.69060        1.69620       -0.32770
C          3.60140        1.85120        0.81710
O          2.99120        0.59560        0.51210
H         -0.85830        1.75850       -0.38290
H          1.13870        3.13010       -0.88410
H          3.10680        1.64480       -1.33470
H          4.67430        1.90440        0.64450
H          3.23220        2.33370        1.71890
