16
gdb 17711	6.04834	1.44834	1.41233	0.2957	64.2	-0.2579	0.0634	0.3212	892.6179	0.130684	-383.652974	-383.646241	-383.645296	-383.683518	26.857
O          0.21170        1.41200       -0.19060
C          0.08600        0.02090       -0.06110
C          0.03760       -0.63330        1.33500
C         -1.48900       -0.29680        1.52020
C         -1.80330       -1.76430        1.87530
O         -3.09070       -2.28400        1.67470
C         -0.73380       -1.87610        0.76930
C         -1.30830       -0.63650       -0.01280
H         -0.39340        1.83080        0.43160
H          0.79710       -0.41300       -0.77070
H          0.78930       -0.65350        2.12540
H         -1.91530        0.61390        1.94590
H         -1.49820       -2.09260        2.87360
H         -3.38900       -2.02550        0.79560
H         -0.27900       -2.76080        0.32180
H         -2.08490       -0.64490       -0.78040
