16
gdb 16288	3.27339	1.88999	1.49593	4.587	70.54	-0.2326	0.0073	0.2399	882.453	0.130772	-342.749994	-342.742567	-342.741623	-342.781505	27.84
C         -0.19700        1.45670        0.07110
N          0.10990        0.03840        0.01290
C          1.18910       -0.44910       -0.89330
C          1.85530       -1.17520        0.27790
C          2.20420       -0.19070        1.35500
C          0.75140       -0.58830        1.16610
C         -0.02290       -1.18870        2.20970
N         -0.64610       -1.66350        3.06140
H          0.67310        2.10160        0.28270
H         -0.62710        1.76890       -0.88550
H         -0.94760        1.62790        0.84870
H          0.79450       -1.10260       -1.67660
H          1.79980        0.33850       -1.35350
H          2.21610       -2.19420        0.27310
H          2.68220       -0.60840        2.23450
H          2.51660        0.81830        1.10120
