19
gdb 1184	3.88855	1.74816	1.69232	2.64	67.66	-0.2455	-0.0172	0.2283	871.5557	0.16854	-310.941861	-310.932819	-310.931874	-310.975126	32.199
C         -0.07740        1.54010        0.15990
C         -0.00220        0.02310       -0.04500
C          0.72420       -0.45280       -1.33500
C          0.00300        0.00120       -2.60860
C          2.20030        0.00150       -1.33950
C          0.74050       -1.97540       -1.25940
O          0.24690       -2.72630       -2.05990
H          0.91450        1.99380        0.24510
H         -0.60540        2.03630       -0.65960
H         -0.61940        1.76600        1.08340
H          0.49730       -0.42770        0.82310
H         -1.02090       -0.38480       -0.05650
H          0.03680        1.08910       -2.71380
H          0.46840       -0.44170       -3.49310
H         -1.04410       -0.31430       -2.60120
H          2.72990       -0.34500       -0.44500
H          2.72620       -0.38920       -2.21660
H          2.27190        1.09190       -1.36970
H          1.27030       -2.37110       -0.35890
