15
gdb 10442	2.80777	1.74248	1.2668	1.8017	72.49	-0.2498	0.0314	0.2812	975.5617	0.116359	-325.423536	-325.415248	-325.414303	-325.456366	30.759
C         -0.17350       -1.11470        0.48980
C         -0.07270        0.02490        0.12380
C          0.05350        1.41490       -0.30150
C          1.46720        1.98030       -0.11760
C          1.59100        3.39830        0.34130
N          1.92530        2.29890        1.25180
C          2.46460        1.42250       -0.99790
C          3.26750        0.96490       -1.76590
H         -0.25830       -2.12490        0.80580
H         -0.23200        1.50830       -1.35630
H         -0.64900        2.03750        0.26730
H          2.43850        3.99030        0.01060
H          0.67040        3.95720        0.49210
H          1.16470        2.12720        1.90630
H          3.98800        0.55350       -2.42860
