18
gdb 14128	3.83508	1.57469	1.33745	2.262	67.23	-0.232	0.069	0.301	964.3239	0.152625	-384.890125	-384.882032	-384.881087	-384.922629	30.501
C          0.00290        1.54360       -0.09550
C         -0.08990        0.02000        0.01430
O          0.33140       -0.61840       -1.18720
C          0.66210       -0.50850        1.21330
C          2.10940       -0.97000        1.19320
C          1.02740       -1.90960        1.63450
O          0.68420       -1.68130        3.00510
C          0.23540       -0.34050        2.67260
H          1.04860        1.85970       -0.19370
H         -0.55310        1.89570       -0.96880
H         -0.40730        2.03020        0.79560
H         -1.14580       -0.26210        0.12000
H          1.16450       -0.21500       -1.45410
H          2.50360       -1.17210        0.20240
H          2.82960       -0.60050        1.91850
H          0.82240       -2.88400        1.20720
H          0.73630        0.43050        3.27040
H         -0.85130       -0.25740        2.79960
