18
gdb 19702	5.59094	1.77555	1.61638	0.2207	75.81	-0.2166	0.0093	0.226	849.0293	0.155537	-310.613214	-310.606902	-310.605958	-310.643147	26.393
C         -0.17060        1.57890       -0.00190
C          0.01100        0.06780        0.02130
C          1.22600       -0.60200       -0.67490
C          2.17630       -0.18310        0.51250
C          3.15540       -1.32800        0.72230
C          2.41390       -2.42240        0.53990
C          1.03060       -1.87500        0.23080
C          0.80720       -0.62390        1.16020
H          0.75540        2.11940        0.21390
H         -0.52640        1.91180       -0.98340
H         -0.91580        1.89150        0.73820
H         -0.94240       -0.42730       -0.20220
H          1.48110       -0.59940       -1.73910
H          2.52620        0.84390        0.60460
H          4.20530       -1.23610        0.96300
H          2.69310       -3.46540        0.59120
H          0.19740       -2.55090        0.03250
H          0.57530       -0.64680        2.22950
