17
gdb 18912	3.89613	2.37806	2.12557	1.6429	70.21	-0.2192	0.0833	0.3025	732.93	0.144128	-326.677797	-326.671679	-326.670735	-326.707568	25.283
C         -0.04860        1.49280        0.08650
C          0.02160        0.00390        0.00760
C          1.13320       -0.84920       -0.54650
C          0.55460       -1.89230       -1.48030
C         -0.77890       -2.07310       -0.79080
C         -0.65590       -1.87130        0.67520
C          0.63080       -1.06340        0.88140
N         -1.26260       -0.79600       -0.17700
H          0.93480        1.91480        0.31700
H         -0.38630        1.91680       -0.86650
H         -0.75060        1.81420        0.86270
H          2.11280       -0.41170       -0.69480
H          0.44530       -1.52110       -2.50520
H          1.13330       -2.82230       -1.50480
H         -1.56110       -2.69840       -1.20700
H         -1.23070       -2.38600        1.43620
H          1.24040       -0.99380        1.77140
