15
gdb 13243	7.62487	0.90558	0.86766	3.6301	62.5	-0.2633	0.0018	0.2651	1264.3768	0.117966	-399.76494	-399.75695	-399.756006	-399.798797	26.91
N         -0.20000       -1.08250       -0.20280
C         -0.07620        0.05070       -0.02140
C          0.04300        1.48980        0.22760
O          1.27580        1.94560       -0.27930
C          1.44840        3.33520       -0.13280
C          1.93840        3.86240        1.23860
O          3.12010        4.42020        0.63140
C          2.81130        3.82010       -0.64420
H         -0.80450        2.00280       -0.25560
H         -0.04450        1.66470        1.31150
H          0.58270        3.87500       -0.53940
H          1.32840        4.62800        1.73100
H          2.17410        3.06040        1.95120
H          3.48520        2.99200       -0.89480
H          2.80540        4.55360       -1.45700
