20
gdb 11892	4.37895	1.44989	1.22434	0.3189	83.47	-0.2099	0.034	0.244	1065.5339	0.177627	-311.880793	-311.872842	-311.871898	-311.912979	30.813
C          0.00470        1.50100        0.02510
C         -0.01220        0.00670       -0.03080
C         -1.06970       -0.80050        0.09060
C         -0.70420       -2.23870        0.01810
C         -1.26530       -3.23600        1.01490
C         -1.67640       -3.30170       -0.43360
C          0.77170       -2.25160       -0.41180
C          1.26450       -0.79670       -0.19440
H          0.64200        1.86080        0.84380
H          0.41750        1.93000       -0.89750
H         -0.99780        1.91270        0.17130
H         -2.09120       -0.46910        0.25180
H         -0.59530       -4.00230        1.39210
H         -1.99120       -2.88280        1.74030
H         -2.68470       -2.99770       -0.69660
H         -1.28690       -4.11490       -1.03850
H          1.36490       -2.98490        0.14170
H          0.84420       -2.51310       -1.47310
H          1.87990       -0.43650       -1.02810
H          1.89060       -0.70220        0.70470
