16
gdb 2304	5.9552	1.41913	1.25156	1.5456	70.96	-0.219	0.0421	0.2611	988.4085	0.135116	-288.585212	-288.576965	-288.576021	-288.619117	28.223
C          0.11100        1.52770        0.03780
C          0.06310        0.07280        0.03870
C          0.02830       -1.13220        0.05000
C          0.00660       -2.56930        0.00920
C         -0.44760       -3.35620        1.20510
N         -1.25590       -3.33660       -0.00010
C         -2.50840       -2.59460        0.05700
H          1.14600        1.88730        0.03170
H         -0.38920        1.94530       -0.84320
H         -0.37780        1.94350        0.92590
H          0.77050       -3.01420       -0.62530
H          0.03460       -4.30020        1.44630
H         -0.78690       -2.77660        2.06220
H         -2.46230       -1.69020        0.68140
H         -2.79620       -2.29670       -0.95580
H         -3.28360       -3.25730        0.45420
