18
gdb 17196	4.74312	1.61909	1.43735	1.4502	72.51	-0.2512	0.0735	0.3248	912.6845	0.154294	-347.726498	-347.719484	-347.71854	-347.757213	28.508
O          0.22980        1.38200       -0.18880
C          0.05310        0.00430       -0.02670
C          0.00490       -0.66210        1.39140
C         -1.44450       -0.09630        1.53790
C         -1.37210       -0.64050        0.07480
C         -0.64560       -1.85770        0.67360
C         -0.08560       -3.09690        0.06760
C         -1.14200       -3.16840        1.17120
H         -0.34730        1.85090        0.42240
H          0.72780       -0.47300       -0.74010
H          0.79120       -0.68870        2.14770
H         -2.10590       -0.63320        2.22090
H         -1.55950        0.98390        1.67600
H         -2.16310       -0.64250       -0.67710
H         -0.38850       -3.37320       -0.93780
H          0.92760       -3.39390        0.32080
H         -0.82410       -3.51270        2.15060
H         -2.14020       -3.49190        0.89220
