16
gdb 20825	3.27988	1.78936	1.26076	3.4626	66.57	-0.2301	0.0075	0.2377	964.1134	0.1314	-379.923385	-379.91557	-379.914625	-379.955696	28.767
C         -0.14050        1.54470       -0.00680
C          0.05290        0.01750       -0.02080
C          0.75220       -0.51290        1.19370
C          2.03760       -0.91800        1.35130
O          2.27510       -1.33570        2.60130
N          1.09730       -1.20290        3.34740
C          0.20680       -0.72810        2.50470
N         -1.11770       -0.56020        2.88010
H          0.82420        2.05920        0.03480
H         -0.67000        1.87910       -0.90420
H         -0.72110        1.87260        0.86260
H         -0.92510       -0.47150       -0.11410
H          0.62020       -0.26340       -0.91460
H          2.87380       -0.97320        0.66990
H         -1.24710       -0.62460        3.88160
H         -1.55270        0.27080        2.50520
