15
gdb 1989	6.66628	1.60444	1.37235	2.5886	57.33	-0.2423	0.0312	0.2735	854.1692	0.125986	-341.84119	-341.833846	-341.832901	-341.873047	26.408
N          0.14220        0.18260       -1.00350
C         -0.00360        0.02990        0.34380
O          0.45950        0.81140        1.15050
C         -0.83010       -1.18620        0.78910
C         -0.97980       -2.28570       -0.23320
C         -2.20870       -3.10440       -0.33630
N         -1.89970       -2.10820       -1.38250
H          0.67320        0.97250       -1.33130
H         -0.22480       -0.47720       -1.66910
H         -0.35820       -1.55820        1.70370
H         -1.81830       -0.80970        1.08560
H         -0.04520       -2.76150       -0.52550
H         -2.14670       -4.14000       -0.65700
H         -3.02420       -2.89040        0.34950
H         -2.47390       -1.28200       -1.22230
