14
gdb 14589	8.14282	0.6128	0.60262	1.8116	68.69	-0.2568	-0.0366	0.2203	1738.341	0.102892	-382.527084	-382.517906	-382.516962	-382.564564	29.274
O         -0.62460        0.48880        0.54660
C         -0.11470        1.50730        0.16940
C          1.33920        1.59940       -0.30510
C          1.50140        2.52060       -1.41980
C          1.57300        3.27600       -2.35490
C          1.70090        4.22940       -3.44700
C          2.34000        5.54730       -2.99960
O          1.99810        6.62270       -3.40740
H         -0.66340        2.47360        0.15210
H          1.92920        1.94460        0.55800
H          1.68650        0.58870       -0.54280
H          2.34950        3.81490       -4.23410
H          0.73860        4.45750       -3.91650
H          3.16800        5.42770       -2.26750
