16
gdb 10106	3.13719	1.24336	0.92825	3.1398	68.15	-0.2488	-0.0264	0.2224	1204.353	0.126204	-383.697708	-383.688341	-383.687397	-383.732698	31.842
C          0.27560        1.51800        0.01470
O         -0.07710        0.14890        0.07760
C          0.59460       -0.57570        1.09500
C         -0.08700       -1.95270        1.17280
C         -1.53710       -1.86130        1.60710
O         -2.06760       -2.65430        2.34190
C          2.03340       -0.70760        0.83470
C          3.20910       -0.82490        0.61430
H          1.34110        1.65050       -0.21340
H         -0.32190        1.96120       -0.78430
H          0.05050        2.03460        0.96010
H          0.46730       -0.05320        2.05980
H         -0.05950       -2.38810        0.16540
H          0.44960       -2.62190        1.84840
H         -2.09420       -0.99950        1.18270
H          4.24910       -0.92700        0.42270
