15
gdb 9214	6.48859	0.98313	0.88474	6.8379	60.89	-0.2631	0.001	0.2641	1253.0873	0.117218	-436.982346	-436.973394	-436.97245	-437.017232	29.584
C          0.16080        1.33410       -0.13810
N         -0.16280       -0.07900       -0.22840
C          0.59210       -0.95860       -0.93550
O          1.59180       -0.66210       -1.56190
C          0.12840       -2.42060       -0.84930
O          0.35900       -3.09420       -2.07230
C          1.64070       -3.44810       -2.34670
O          1.94680       -3.94260       -3.38690
H          1.10000        1.48730       -0.67010
H         -0.61650        1.94950       -0.60330
H          0.28060        1.64450        0.90500
H         -1.00730       -0.40780        0.21020
H          0.67150       -2.90060       -0.02290
H         -0.94180       -2.50960       -0.64710
H          2.32940       -3.25840       -1.50580
