15
gdb 3000	6.52104	1.77825	1.51661	2.8746	59.13	-0.241	0.0411	0.2821	822.9582	0.125167	-341.842686	-341.834953	-341.834009	-341.875755	26.171
C         -0.05290        1.39230        0.06500
N          0.33320        0.00390       -0.07000
C          0.69830       -0.76090        0.99590
O          0.69400       -0.38480        2.15200
N          1.11800       -2.05900        0.57530
C          0.09220       -3.11490        0.52840
C          1.12850       -3.09600        1.59490
H          0.71020        2.07010       -0.33670
H         -0.99980        1.58940       -0.44920
H         -0.17370        1.59660        1.12940
H          0.51100       -0.37770       -0.98420
H         -0.92060       -2.83990        0.81210
H          0.16630       -3.80060       -0.31080
H          1.97130       -3.77850        1.54460
H          0.82320       -2.79080        2.59080
