18
gdb 9644	4.04818	1.20258	1.075	3.2563	74.09	-0.2664	0.0183	0.2848	1158.6411	0.152964	-343.985167	-343.976165	-343.975221	-344.018886	32.174
C          0.23950        1.53280        0.11070
C         -0.24390        0.09790       -0.13400
C          0.45570       -0.52650       -1.32010
N          1.78770       -1.10030       -1.10410
C          0.67870       -2.00600       -1.48480
C          0.26120       -3.04780       -0.46440
C          0.66750       -2.47820       -2.85460
N          0.67090       -2.86360       -3.94580
H          1.31570        1.54810        0.30810
H          0.04620        2.17150       -0.75800
H         -0.27030        1.97640        0.97060
H         -0.06540       -0.50500        0.76040
H         -1.32540        0.09110       -0.31760
H          0.30470        0.01160       -2.25570
H          2.40040       -0.92700       -1.89690
H          0.35550       -2.64700        0.54500
H         -0.77320       -3.36280       -0.63010
H          0.90420       -3.92930       -0.54100
