20
gdb 9337	7.49008	0.69998	0.65297	3.7757	72.43	-0.2427	-0.0071	0.2356	1719.3704	0.17388	-386.163129	-386.152747	-386.151802	-386.200269	35.016
C         -0.08240        1.52630       -0.11280
C          0.02930        0.01240        0.04940
C          0.78350       -0.41280        1.30480
O          1.23530        0.39530        2.08350
C          0.93520       -1.91520        1.52110
C          1.68980       -2.27930        2.79780
C          1.82660       -3.78430        2.98280
O          2.53720       -4.01170        4.18940
H          0.90740        1.98680       -0.16530
H         -0.63160        1.77850       -1.02430
H         -0.60100        1.97210        0.73960
H         -0.96360       -0.45760        0.07890
H          0.53110       -0.44360       -0.81540
H         -0.07070       -2.35960        1.51480
H          1.43310       -2.33330        0.63410
H          2.68640       -1.82740        2.78330
H          1.17750       -1.85610        3.66740
H          0.82680       -4.24980        3.01490
H          2.35690       -4.22080        2.11930
H          2.62710       -4.96100        4.31240
