16
gdb 14346	5.01199	1.57733	1.3438	2.5965	67.13	-0.2431	0.0032	0.2463	908.5793	0.131161	-383.695797	-383.688886	-383.687942	-383.726817	26.636
O         -0.00190        1.45170        0.02740
C          0.04810        0.03390       -0.03780
C         -1.41300       -0.51240       -0.08830
C         -1.27120       -1.78420       -0.93520
O         -2.03760       -2.00580       -2.17200
C         -0.80050       -2.12340       -2.94390
C         -0.07000       -1.51120       -1.77660
C          0.64730       -0.47800       -1.35780
H          0.86400        1.77400        0.29530
H          0.58160       -0.35880        0.84260
H         -1.85150       -0.66210        0.90130
H         -2.00950        0.22500       -0.63380
H         -1.28460       -2.70510       -0.33760
H         -0.57380       -3.17500       -3.16350
H         -0.82350       -1.54880       -3.87570
H          1.43900        0.05200       -1.87430
