19
gdb 18403	3.28563	2.13313	1.45834	1.5355	71.35	-0.2261	0.0858	0.3119	889.237	0.168376	-365.031576	-365.024761	-365.023817	-365.062182	27.557
C          0.02860        1.49450        0.05370
C          1.30590        0.72310        0.04160
C          2.20760        0.67520        1.25710
O          2.72350       -0.62600        1.48480
C          1.85780       -1.47000        2.22480
C          0.54370       -1.85460        1.53100
C         -0.39420       -0.67510        1.24790
N          0.01370        0.03760        0.03610
H         -0.23930        1.99600        0.98400
H         -0.32920        1.99110       -0.84450
H          1.84180        0.62260       -0.90120
H          3.07350        1.32510        1.08870
H          1.68910        1.04380        2.15510
H          2.44140       -2.37310        2.43020
H          1.62570       -0.99810        3.19620
H          0.75690       -2.37230        0.58920
H          0.03140       -2.57070        2.18610
H         -1.41370       -1.03950        1.07680
H         -0.44370       -0.02070        2.13540
