11
gdb 1370	7.97173	1.58911	1.32499	5.2935	57.62	-0.2552	-0.0515	0.2037	824.0097	0.07735	-339.419688	-339.412572	-339.411628	-339.451361	24.356
N          0.11700        1.44260        0.00710
C          0.08070        0.16930        0.00140
N         -1.12110       -0.55290        0.00850
C         -2.42620       -0.08010        0.02440
O         -2.78220        1.06540        0.03480
C          1.23800       -0.69050       -0.01320
C          2.21690       -1.38970       -0.02550
H          1.08660        1.75620        0.00000
H         -1.01940       -1.55630        0.00170
H         -3.12850       -0.93930        0.02580
H          3.09030       -1.99540       -0.03630
