15
gdb 2218	3.82361	2.82753	2.15141	1.8343	56.46	-0.2338	0.059	0.2928	663.8801	0.124551	-345.603646	-345.596955	-345.596011	-345.633826	25.297
C         -0.04170        1.58600        0.02260
C          0.02020        0.08780        0.02030
C         -1.17920       -0.85540        0.01970
O         -0.47570       -1.83220        0.84490
C          0.63790       -0.93470        0.97650
C          1.23660       -0.73870       -0.37660
O          1.20900       -1.75120       -1.33180
H          0.94060        2.02060        0.23330
H         -0.36640        1.96900       -0.95220
H         -0.74070        1.96060        0.77930
H         -2.04770       -0.46420        0.56090
H         -1.49170       -1.27330       -0.94390
H          1.12480       -0.87560        1.94430
H          2.16080       -0.16680       -0.40820
H          0.71620       -2.47960       -0.92900
