17
gdb 8342	4.80158	1.39253	1.31717	3.8904	72.59	-0.3048	0.0349	0.3397	968.5977	0.143719	-326.696848	-326.689831	-326.688887	-326.728487	26.868
N         -0.04800       -1.14670       -0.00600
C         -0.02660        0.00870        0.00090
C          0.03260        1.47000        0.00930
C          1.45980        1.99220       -0.00140
C          2.54930        1.75750       -1.09010
C          3.20960        2.66720       -0.01440
C          1.88890        3.48980        0.00470
C          2.57100        1.74260        1.06170
H         -0.51340        1.84760       -0.86370
H         -0.49620        1.83680        0.89720
H          2.93540        0.73920       -1.18050
H          2.36520        2.20800       -2.06960
H          4.22530        3.06040       -0.02190
H          1.65590        4.06900       -0.89350
H          1.67410        4.05640        0.91530
H          2.40680        2.17940        2.05090
H          2.95860        0.72320        1.13010
