13
gdb 103	8.15202	4.38313	3.43318	1.8159	46.02	-0.2573	0.0984	0.3557	432.2224	0.113178	-232.334436	-232.32857	-232.327626	-232.363064	20.451
C         -0.03350        1.54670       -0.13370
C         -0.04970        0.05910        0.10860
O          1.17260       -0.65890       -0.09930
C          0.62650       -0.62550        1.22490
C          1.43850        0.05650        2.29620
H          0.84260        2.02420        0.30900
H         -0.02020        1.75200       -1.20940
H         -0.93420        2.01070        0.28320
H         -0.92260       -0.44790       -0.31000
H          0.19590       -1.58040        1.53660
H          1.84120        1.01300        1.95810
H          0.82510        0.22930        3.18750
H          2.28150       -0.57800        2.58960
