13
gdb 2762	4.58441	2.3172	1.74353	4.6699	54.37	-0.2601	0.0091	0.2692	701.7786	0.102626	-340.612805	-340.606107	-340.605162	-340.643702	23.888
O          0.17060        1.38670       -0.16390
C          0.08570        0.00390       -0.01070
C          0.17770       -0.54420        1.43950
N         -1.30000       -0.65100        1.46500
C         -1.36750       -0.61070       -0.01100
C         -2.44530        0.20710       -0.56180
N         -3.28650        0.86970       -0.99660
H         -0.45170        1.80760        0.44170
H          0.76640       -0.43170       -0.74200
H          0.71370       -1.50170        1.49140
H          0.59530        0.14160        2.18340
H         -1.69650       -1.47520        1.90150
H         -1.37810       -1.59300       -0.50400
