16
gdb 8805	4.98298	1.20249	0.98071	0.0001	65.02	-0.239	-0.0256	0.2134	1177.6819	0.130404	-417.131003	-417.121791	-417.120847	-417.165579	30.829
C          0.00130        1.43430        0.00880
N         -0.09360       -0.00880        0.00280
C         -1.25940       -0.67740        0.00980
O         -2.38170       -0.19080        0.02190
C         -1.03200       -2.20450        0.00070
O          0.09030       -2.69110       -0.01140
N         -2.19780       -2.87310        0.00770
C         -2.29270       -4.31620        0.00170
H          0.53610        1.79210        0.89520
H          0.52070        1.80060       -0.88340
H         -1.01410        1.83360        0.01950
H          0.72970       -0.59630       -0.00710
H         -3.02100       -2.28560        0.01750
H         -2.82760       -4.67400       -0.88480
H         -1.27730       -4.71550       -0.00900
H         -2.81210       -4.68240        0.89390
