15
gdb 2851	5.87951	1.42621	1.24696	2.6127	59.3	-0.2483	-0.0195	0.2288	926.6322	0.123723	-345.64189	-345.634288	-345.633344	-345.674029	26.593
O         -0.11590        1.41530       -0.44320
C          0.03230        0.10230        0.07720
C         -1.33820       -0.52900        0.07180
C         -1.85530       -1.26530       -1.11410
C         -1.55140       -2.04110        0.16440
C         -0.41720       -2.99170        0.17020
O         -0.37760       -3.99830        0.83470
H          0.72740        1.86950       -0.35520
H          0.73490       -0.48760       -0.53070
H          0.42640        0.12300        1.10540
H         -2.06500        0.04810        0.63620
H         -2.89640       -1.16410       -1.39680
H         -1.17460       -1.41450       -1.94700
H         -2.38920       -2.37150        0.76870
H          0.42240       -2.72750       -0.51380
