10
gdb 21624	4.19579	2.08428	1.39253	5.944	53.05	-0.2741	-0.1053	0.1688	778.1407	0.060324	-446.766165	-446.759674	-446.75873	-446.797049	23.355
N          0.00280        1.31930        0.00820
C         -0.05230       -0.01700        0.00100
N         -1.18340       -0.65300        0.00380
C         -1.13160       -2.01680       -0.00400
O         -2.04480       -2.78060       -0.00340
O          0.17740       -2.60640       -0.01460
N          1.32570       -1.84300       -0.01690
N          1.23580       -0.60440       -0.00950
H          0.89590        1.78110        0.00570
H         -0.85250        1.84910        0.01600
