15
gdb 12334	3.11549	2.25363	1.36582	3.4158	62.73	-0.2465	-0.0053	0.2412	865.0557	0.120235	-399.828442	-399.821117	-399.820173	-399.860566	26.849
N          0.28920        1.19130        0.56040
C         -0.08100       -0.08340       -0.04730
C         -1.56660       -0.18370       -0.25020
C         -2.07500       -0.94320       -1.21180
C         -1.19180       -1.70740       -2.14680
O          0.14040       -1.18800       -2.26980
C          0.69780       -0.37900       -1.34410
O          1.79020        0.08050       -1.54620
H          1.30500        1.24440        0.57740
H         -0.00180        1.94480       -0.05910
H          0.22520       -0.87370        0.65860
H         -2.18800        0.37570        0.44200
H         -3.14540       -1.05800       -1.35100
H         -1.11790       -2.76230       -1.84390
H         -1.59750       -1.69830       -3.16400
