18
gdb 18864	3.71965	2.23902	1.84313	0.9018	77.91	-0.206	-0.026	0.18	797.0885	0.154606	-310.570984	-310.564445	-310.563501	-310.601128	27.049
C          0.21520        1.51390        0.26950
C          0.01410        0.02600        0.04810
C          0.70950       -0.74400       -1.14610
C          2.11020       -1.45960       -0.92390
C          3.07000       -1.14970        0.24050
C          2.05020       -0.66950        1.27080
C          0.81030       -1.01080        0.86570
C          0.86060       -1.98780       -0.32350
H          1.27580        1.78200        0.26200
H         -0.28790        2.08630       -0.51760
H         -0.20830        1.83130        1.22880
H         -1.05730       -0.20190       -0.03080
H          0.33930       -0.69530       -2.16860
H          2.49950       -1.89040       -1.84550
H          3.66960       -2.03900        0.48480
H          3.77790       -0.33360        0.04850
H          2.25010        0.22960        1.84610
H          0.38690       -2.95610       -0.41560
