10
gdb 3874	7.72859	2.25869	1.74946	4.386	44.51	-0.2382	0.0135	0.2517	640.5731	0.068317	-392.642251	-392.636486	-392.635542	-392.671509	21.411
N         -0.03870        1.30850        0.15390
C         -0.04750       -0.04100        0.03620
N         -1.08920       -0.82750       -0.03920
C         -0.47930       -2.05470       -0.07780
O         -1.18180       -3.18480       -0.15630
N          0.82800       -2.07190       -0.03650
O          1.12510       -0.67260        0.04180
H          0.82040        1.78040       -0.07830
H         -0.89080        1.77790       -0.10510
H         -2.11330       -2.93390       -0.16720
