12
gdb 21650	5.8832	1.64613	1.28812	5.5935	60.74	-0.2265	-0.079	0.1475	858.1016	0.08634	-410.868578	-410.862088	-410.861144	-410.89925	24.382
N         -0.01090        1.41550        0.14770
C         -0.03360        0.03300        0.03520
N         -1.17290       -0.59580        0.02880
N         -1.08600       -1.94060        0.01490
C          0.06240       -2.72670       -0.03220
O         -0.00210       -3.93460       -0.06250
N          1.26710       -1.99970       -0.03940
C          1.20400       -0.71300        0.00030
H          0.72270        1.87640       -0.37180
H         -0.91480        1.84240       -0.00500
H         -1.97150       -2.42660        0.02080
H          2.14600       -0.15960        0.00730
