15
gdb 9189	7.48736	0.9109	0.82043	2.2547	65.45	-0.2545	0.0284	0.2829	1342.3784	0.116404	-399.801184	-399.791853	-399.790908	-399.836908	31.002
C          0.09800        1.38620        0.11250
N         -0.07910       -0.04960        0.13670
C         -1.29510       -0.63410       -0.00860
O         -2.35210       -0.06360       -0.17020
O         -1.15990       -1.98880        0.05410
C         -2.39750       -2.70360       -0.08950
C         -2.12390       -4.12910       -0.00520
C         -1.93420       -5.31280        0.05960
H          0.75470        1.69560       -0.70850
H         -0.88500        1.83510       -0.03390
H          0.51890        1.75420        1.05500
H          0.71220       -0.65790        0.26300
H         -3.09590       -2.39000        0.69410
H         -2.86030       -2.44780       -1.04900
H         -1.76490       -6.35970        0.11700
