20
gdb 17566	3.30358	2.29441	1.8549	0.178	77.77	-0.2475	0.0959	0.3434	825.1222	0.179519	-311.837366	-311.830748	-311.829803	-311.867467	28.345
C         -0.03030        1.52380        0.04150
C          0.03620        0.01330        0.05870
C          0.89530       -0.81560       -0.97110
C          0.72430       -1.93110        0.11670
C          0.83530       -0.77120        1.14050
C         -0.79010       -2.19550       -0.00060
C         -1.73610       -1.69480        1.06390
C         -1.29750       -0.76620       -0.04320
H          0.97010        1.96860        0.06890
H         -0.53240        1.88760       -0.86280
H         -0.59040        1.90330        0.90370
H          0.45990       -1.00100       -1.95790
H          1.92290       -0.45110       -1.06820
H          1.38490       -2.79710        0.16490
H          1.86090       -0.40160        1.21480
H          0.42530       -0.88480        2.14540
H         -1.12910       -2.94960       -0.70200
H         -2.75600       -2.05960        0.98400
H         -1.41660       -1.55210        2.08930
H         -2.02380       -0.43040       -0.77600
