14
gdb 4752	6.50196	1.30223	1.09255	6.7567	72.24	-0.232	-0.0047	0.2273	1026.121	0.109133	-341.641509	-341.634252	-341.633308	-341.673432	25.997
C         -0.00270        1.45960        0.00250
N         -0.02650        0.00870        0.00060
C          0.01980       -0.78470       -1.12440
C          0.05530       -2.09700       -0.73220
C          0.03180       -2.10340        0.69720
C         -0.01580       -0.78090        1.10950
C          0.04290       -3.23580        1.54660
N          0.05340       -4.16690        2.23660
H          1.01600        1.84250       -0.11940
H         -0.62320        1.84040       -0.81200
H         -0.40700        1.82700        0.94730
H          0.02170       -0.34070       -2.10690
H          0.08170       -2.96330       -1.37300
H         -0.04290       -0.36110        2.10170
