22
gdb 6838	3.01471	1.42292	1.25776	1.2682	78.14	-0.2505	0.0763	0.3268	1119.8219	0.198832	-350.206833	-350.197495	-350.196551	-350.240206	35.574
C          0.03280        1.60380        0.02480
C         -0.09490        0.07660       -0.01450
C          0.66160       -0.54650       -1.18030
C          2.21660       -0.54950       -1.19700
C          2.16990       -1.94460       -1.87440
C          0.69270       -2.08920       -1.39170
C          0.55610       -2.92920       -0.12510
O         -0.26200       -2.48590       -2.36150
H          1.07960        1.91290        0.11790
H         -0.36430        2.05660       -0.89050
H         -0.51530        2.02800        0.87180
H          0.27060       -0.34110        0.93240
H         -1.15520       -0.19920       -0.08510
H          0.29670       -0.11820       -2.12150
H          2.71770        0.25500       -1.73860
H          2.63420       -0.59630       -0.18580
H          2.19970       -1.87030       -2.96430
H          2.88870       -2.70020       -1.54420
H          1.26850       -2.62310        0.64710
H         -0.45470       -2.85420        0.28640
H          0.75740       -3.98450       -0.35080
H         -0.24390       -3.44680       -2.42890
