20
gdb 10310	2.39345	1.7488	1.07547	0.8016	77.57	-0.2621	0.0381	0.3002	1148.1266	0.173344	-348.966201	-348.956143	-348.955199	-349.000779	36.19
C          0.21950        0.69130       -1.27760
O         -0.16570        0.30850        0.02560
C         -1.36450       -0.45000        0.08000
C         -1.18670       -1.76910       -0.54580
C         -1.01780       -2.84220       -1.06170
C         -1.78610       -0.55160        1.56340
C         -1.93430        0.84790        2.17240
C         -3.07540       -1.36600        1.72040
H          1.12700        1.29090       -1.17670
H          0.43140       -0.17880       -1.91340
H         -0.55790        1.29990       -1.76560
H         -2.16020        0.08680       -0.46880
H         -0.87400       -3.79090       -1.51730
H         -0.97150       -1.07560        2.07870
H         -2.74380        1.40240        1.68180
H         -2.18060        0.77570        3.23640
H         -1.01420        1.42440        2.06550
H         -3.34410       -1.44950        2.77790
H         -3.91280       -0.87970        1.20520
H         -2.96940       -2.37500        1.31460
