17
gdb 11661	3.07381	1.93197	1.53389	3.3975	68.92	-0.2456	0.0012	0.2468	896.1795	0.141861	-363.810838	-363.803195	-363.802251	-363.842987	28.477
C         -0.00890        1.53750       -0.02390
C         -0.02120        0.00570        0.06070
C         -1.41020       -0.55740       -0.01510
C         -1.90670       -2.04400        0.04660
C         -3.20740       -1.18400        0.03770
N         -2.53350       -0.17910        0.97140
C         -2.51820       -0.38250       -1.08220
O         -2.70260        0.06730       -2.16600
H          1.01180        1.92270        0.05120
H         -0.43380        1.87620       -0.97320
H         -0.60380        1.97450        0.78270
H          0.56570       -0.42500       -0.76030
H          0.45760       -0.33000        0.98980
H         -1.69760       -2.71460       -0.79350
H         -1.71190       -2.52460        1.01030
H         -4.24110       -1.49610        0.16800
H         -2.33590       -0.67390        1.84890
