15
gdb 14924	4.86764	1.47253	1.20081	4.1056	61.57	-0.2859	0.01	0.2959	953.4462	0.120634	-399.80718	-399.800306	-399.799362	-399.83838	25.559
N         -0.00480       -1.14710       -0.06530
C          0.02120        0.00650       -0.02490
C         -0.00400        1.47230        0.03930
C         -0.74230        1.98580        1.29010
C         -0.57460        3.50690        1.34630
O          0.79990        3.85820        1.25980
C          1.37790        3.34990        0.09370
O          1.33720        1.93970        0.03160
H         -0.52720        1.83700       -0.86230
H         -1.79990        1.70770        1.25010
H         -0.29390        1.52850        2.17630
H         -1.13590        3.98150        0.52340
H         -0.94530        3.91360        2.28970
H          0.87200        3.76990       -0.79710
H          2.43240        3.62800        0.10060
