20
gdb 11858	6.05106	1.10101	1.04788	1.0278	76.57	-0.243	0.0838	0.3267	1198.3739	0.176326	-348.969185	-348.960847	-348.959903	-349.002146	31.336
C          0.35240        1.64280       -0.52850
O         -0.32760        0.40930       -0.48260
C          0.44360       -0.66460       -0.94740
C          1.57190       -1.23200       -0.02760
C          1.02920       -2.63130       -0.34990
C          1.80770       -3.73290       -1.00980
C          1.24430       -3.91780        0.38340
C         -0.27880       -2.02800       -0.88030
H          1.24830        1.64440        0.11070
H          0.66250        1.89830       -1.55440
H         -0.33720        2.40970       -0.16740
H          0.82900       -0.45260       -1.95690
H          2.61020       -1.01510       -0.29260
H          1.39410       -0.94640        1.01490
H          1.33930       -4.27510       -1.82560
H          2.88190       -3.61300       -1.11380
H          1.93820       -3.92210        1.21830
H          0.39690       -4.58510        0.50730
H         -1.06400       -1.99640       -0.11820
H         -0.69280       -2.42690       -1.80970
