19
gdb 9359	7.5203	0.75714	0.70956	2.5996	70.66	-0.2435	0.0342	0.2778	1610.1742	0.163475	-402.222232	-402.212025	-402.211081	-402.259099	33.697
C          0.06220        1.41620        0.15630
N          0.23580       -0.01480        0.00360
C          0.38030       -0.61400       -1.21420
O          0.40800        0.00960       -2.26220
C          0.48450       -2.13480       -1.16700
C          1.31900       -2.67600       -2.32060
O          1.27720       -4.08580       -2.26120
C          2.00360       -4.69360       -3.30150
H          0.85610        1.85060        0.77410
H          0.10670        1.85440       -0.84130
H         -0.90580        1.65730        0.61020
H          0.22330       -0.59520        0.82540
H          0.89710       -2.47850       -0.21220
H         -0.52730       -2.55210       -1.24310
H          0.91650       -2.30230       -3.27250
H          2.35870       -2.31540       -2.24620
H          1.61330       -4.41180       -4.29220
H          3.07150       -4.42410       -3.26740
H          1.90950       -5.77560       -3.17920
