16
gdb 7474	4.16262	1.39287	1.30223	2.0247	65.91	-0.2502	0.0318	0.282	973.5452	0.128398	-383.680071	-383.671911	-383.670967	-383.712749	30.129
O          0.00800        1.47680       -0.10860
C          0.00630        0.08150        0.01370
C          0.93350       -0.58320       -1.02170
C          2.30270       -0.09970       -0.88930
C          3.40300        0.36330       -0.73930
C          0.12490       -0.52210        1.43950
O         -1.08920       -1.27800        1.24030
C         -1.40840       -0.52510        0.05240
H          0.92720        1.76580       -0.17890
H          0.89480       -1.67150       -0.89670
H          0.55520       -0.35740       -2.02650
H          4.38960        0.74020       -0.62560
H          0.98470       -1.16480        1.65810
H          0.01580        0.23910        2.22240
H         -2.17850        0.23550        0.23210
H         -1.70950       -1.16950       -0.78160
