14
gdb 13035	3.96632	1.39698	1.16849	3.7373	63.88	-0.2684	0.0045	0.2729	998.7874	0.107631	-378.75171	-378.744081	-378.743137	-378.784824	26.2
O         -0.00060       -0.03190       -0.31750
C         -0.03600        1.15090       -0.11710
C         -1.10730        2.24010        0.11520
C          0.08540        3.22950        0.26580
N          0.97120        2.08990       -0.00610
C          2.40020        1.92690       -0.00270
C          3.00680        2.27210        1.29340
N          3.46450        2.57270        2.31040
H         -1.76170        2.41600       -0.73970
H         -1.70650        2.08720        1.01390
H          0.14160        4.02280       -0.48610
H          0.21370        3.65720        1.26470
H          2.59930        0.87400       -0.23100
H          2.87990        2.53340       -0.78200
