11
gdb 21940	7.13726	1.31994	1.12173	5.2601	48.93	-0.2863	-0.0172	0.2691	953.2026	0.07094	-471.676354	-471.6693	-471.668356	-471.708539	23.872
O          0.05660        1.38250        0.01010
C         -0.02330       -0.01670        0.00190
C         -1.46190       -0.41430        0.01290
N         -2.48820        0.35030        0.02210
O         -3.58670       -0.55550        0.02960
C         -3.12310       -1.82810        0.02400
O         -3.75180       -2.83150        0.02740
O         -1.73720       -1.74000        0.01320
H          0.98520        1.63150       -0.00710
H          0.43800       -0.47200       -0.89010
H          0.45470       -0.48340        0.87910
