24
gdb 6801	5.79142	0.67907	0.63654	0.9504	83.65	-0.2453	0.088	0.3333	1881.6635	0.220692	-351.41633	-351.405407	-351.404463	-351.453342	38.305
C          0.06310        1.56150       -0.01570
C         -0.07660        0.04060        0.09130
C          0.79250       -0.56200        1.19950
C          0.64830       -2.07460        1.31020
O          1.47640       -2.52700        2.36070
C          1.58090       -3.93920        2.49450
C          2.80790       -4.19850        3.36240
C          0.31360       -4.55690        3.09520
H          1.09770        1.84940       -0.23280
H         -0.56940        1.96600       -0.81200
H         -0.22510        2.05150        0.92090
H         -1.12870       -0.21750        0.27170
H          0.18680       -0.41890       -0.87070
H          1.84850       -0.32260        1.02380
H          0.53030       -0.11560        2.16680
H         -0.40730       -2.33560        1.49060
H          0.93960       -2.55740        0.36060
H          1.74920       -4.37810        1.49540
H          2.66820       -3.75980        4.35570
H          2.98100       -5.27240        3.47990
H          3.69560       -3.74690        2.91200
H         -0.56210       -4.38840        2.46210
H          0.43410       -5.63880        3.21140
H          0.11350       -4.12330        4.08060
