14
gdb 13045	4.68386	1.37542	1.12297	1.6399	60.24	-0.2655	0.0058	0.2713	997.1879	0.107614	-415.874888	-415.867282	-415.866338	-415.908444	26.267
N          0.46580        1.26550        0.19770
C          0.20670        0.04220        0.11970
O          0.97500       -1.07630        0.32790
C         -0.19760       -1.95570        0.21820
C         -1.06760       -0.73260       -0.15300
N         -2.17490       -0.36960        0.69250
C         -3.35090       -1.04910        0.62930
O         -3.51850       -2.04180       -0.04720
H          1.43960        1.43380        0.45510
H         -0.05550       -2.70890       -0.55720
H         -0.43160       -2.41430        1.18030
H         -1.36420       -0.74180       -1.20600
H         -2.10980        0.49650        1.20550
H         -4.13340       -0.60410        1.27310
