16
gdb 20603	3.28264	2.01468	1.26466	3.0329	68.07	-0.1892	0.0482	0.2374	932.2218	0.131994	-376.124265	-376.115641	-376.114696	-376.157053	31.191
C         -0.02910        1.56020        0.01080
C         -0.03570        0.06500       -0.00480
C         -0.07820       -0.78880       -1.09360
N         -0.20440       -0.55260       -2.46920
N         -0.03910       -2.05390       -0.61120
N          0.01540       -2.09730        0.75580
C          0.01030       -0.82040        1.10970
N         -0.00030       -0.44510        2.45600
H          0.79520        1.96190        0.61470
H          0.09740        1.97110       -0.99730
H         -0.95660        1.98010        0.41940
H         -0.29920        0.43510       -2.66720
H          0.57500       -0.91800       -3.00580
H         -0.21350       -2.89980       -1.12380
H          0.24310       -1.22680        3.05220
H          0.60370        0.34270        2.65340
