15
gdb 14297	3.89544	1.88535	1.80391	0.5423	60.94	-0.2371	0.0181	0.2552	798.5172	0.118743	-399.794369	-399.787032	-399.786087	-399.825988	26.88
C          0.05330        1.42690        0.14240
C          0.00150       -0.05240       -0.00460
N          0.03220       -0.71990       -1.09490
C          0.03470       -2.11220       -0.72200
C          1.22590       -2.55590        0.10960
O          2.36610       -1.76870        0.21020
C         -0.03400       -2.11850        0.80870
O         -0.09680       -0.75250        1.16200
H          0.98160        1.72490        0.64010
H          0.00450        1.89340       -0.84100
H         -0.77770        1.77630        0.76230
H         -0.46470       -2.80570       -1.38820
H          1.40270       -3.63070        0.12280
H          2.55000       -1.40200       -0.66230
H         -0.61650       -2.75880        1.45790
