14
gdb 21104	3.51955	2.0827	1.32606	3.5014	60.64	-0.2094	0.0091	0.2185	870.4408	0.108124	-412.033168	-412.025258	-412.024314	-412.065394	27.983
C         -0.03700        1.41260       -0.04760
N          0.01550       -0.02970        0.04490
N         -0.02340       -0.79140       -1.05880
N          0.04470       -2.04640       -0.66950
C          0.10070       -2.07860        0.67510
O          0.18610       -3.22110        1.39340
C          0.08030       -0.79220        1.17450
N          0.19190       -0.23900        2.45860
H          0.65520        1.84450        0.67830
H          0.25250        1.68800       -1.06150
H         -1.04550        1.78840        0.15430
H          0.22770       -3.94530        0.75660
H          0.63200       -0.90050        3.08800
H         -0.70780        0.01400        2.85750
