17
gdb 13186	3.81478	1.3827	1.20201	3.7115	65.48	-0.2455	0.0177	0.2632	1031.6902	0.1418	-400.989299	-400.980858	-400.979913	-401.023814	28.729
C          0.13340        1.47730       -0.05250
N         -0.01460        0.03240        0.05050
C         -0.11350       -0.54710        1.28450
O         -0.08800        0.04480        2.34400
C         -0.05690       -0.75940       -1.16230
C          0.86330       -2.00520       -1.27240
O         -0.27070       -2.89090       -1.34630
C         -1.20280       -1.79220       -1.33960
H          1.06990        1.74190       -0.55670
H         -0.70070        1.91980       -0.60910
H          0.14380        1.88020        0.95990
H         -0.22260       -1.64570        1.22080
H          0.04160       -0.06870       -1.99930
H          1.47960       -2.04850       -2.17920
H          1.49380       -2.20200       -0.39810
H         -1.91490       -1.85060       -0.50880
H         -1.75550       -1.71510       -2.28430
