15
gdb 20272	4.61214	2.68511	2.43462	1.0792	61.88	-0.2303	0.059	0.2893	625.1667	0.122472	-362.576272	-362.57153	-362.570586	-362.604812	20.674
C         -0.02110        1.52700        0.06160
C          1.51500        1.37350        0.00540
C          1.85450        0.61590        1.30300
O          2.87960       -0.35020        0.95200
C          1.84830       -1.01040        0.20740
C          1.23930        0.04120       -0.77670
N         -0.10760        0.02810       -0.04880
C          0.71600       -0.46940        1.10480
H         -0.47500        1.96050        0.95990
H         -0.45550        1.99000       -0.82850
H          2.20140        2.15370       -0.32180
H          2.05740        1.16380        2.22110
H          2.06140       -2.03570       -0.08610
H          1.25340       -0.00660       -1.86350
H          0.23240       -0.96250        1.94500
