16
gdb 5323	4.48979	1.49059	1.17033	1.5424	65.84	-0.2236	0.0178	0.2415	996.9563	0.130772	-383.764862	-383.757279	-383.756334	-383.797051	28.355
C          0.18630        1.35570       -0.42860
C          0.01910       -0.03810        0.18510
O          0.47930       -0.06910        1.53370
C         -1.39290       -0.55470        0.08630
C         -2.07160       -1.21140        1.06700
O         -3.32370       -1.54550        0.65230
C         -3.44610       -1.09730       -0.62330
C         -2.30440       -0.48350       -1.02580
H          1.22080        1.68870       -0.31100
H         -0.05940        1.35440       -1.49500
H         -0.47410        2.07770        0.06560
H          0.69230       -0.72860       -0.33970
H         -0.07740        0.53680        2.03670
H         -1.80450       -1.51560        2.06420
H         -4.39470       -1.28680       -1.09820
H         -2.12740       -0.03530       -1.99100
