19
gdb 19753	3.60483	2.17748	2.10995	1.7309	72.74	-0.2328	0.0883	0.3211	777.9721	0.169416	-327.928218	-327.92198	-327.921036	-327.958128	26.16
C         -0.14210        1.56630       -0.01670
C          0.03430        0.04860        0.01590
C          0.93720       -0.51950       -1.07840
C          2.32220       -0.60960       -0.53240
C          2.28690       -0.10710        0.90620
C          0.83760       -0.55520        1.19980
C          0.92370       -2.01960        0.73010
N          1.47820       -1.83030       -0.63710
H          0.81520        2.09520       -0.00890
H         -0.67480        1.87220       -0.92360
H         -0.72750        1.91300        0.84150
H         -0.95780       -0.41930       -0.02830
H          0.71640       -0.40710       -2.13370
H          3.21180       -0.57490       -1.14920
H          3.01690       -0.60950        1.54920
H          2.44550        0.97130        0.98650
H          0.45220       -0.36870        2.20140
H          1.60410       -2.63550        1.32600
H         -0.04750       -2.52030        0.67210
