15
gdb 5725	4.86451	2.15156	1.52888	2.9176	67.1	-0.1811	0.0515	0.2326	793.3102	0.122294	-362.689234	-362.683111	-362.682167	-362.719442	23.795
C          0.03560        1.40070       -0.08260
C          1.53500        1.79170        0.00240
N          2.04250        0.62130        0.68550
C          3.23990        0.15200        1.19460
C          3.05640       -1.18450        1.45960
C          1.72250       -1.56130        1.07980
C          1.15640       -0.41160        0.60040
O         -0.00820       -0.03720        0.00420
H         -0.52090        1.82410        0.76220
H         -0.44040        1.70210       -1.01680
H          1.99310        1.91210       -0.98790
H          1.68520        2.71270        0.57220
H          4.07990        0.80620        1.35740
H          3.79100       -1.83820        1.90550
H          1.26390       -2.53250        1.15770
