15
gdb 16407	3.67851	2.26014	1.77926	4.0364	60.39	-0.2337	0.0152	0.2489	752.7806	0.121932	-399.815246	-399.809096	-399.808152	-399.845432	24.175
O          0.00700       -0.04180        0.02410
C          0.01290        1.17130        0.01730
N         -1.11600        1.94770        0.02130
C         -1.07310        3.40550        0.07840
C          0.38760        3.84000       -0.02840
C          1.13240        3.08780       -1.15210
C          1.27710        2.03530       -0.03300
O          1.14370        3.09140        0.96420
H         -1.99550        1.46280        0.11810
H         -1.65840        3.84420       -0.74100
H         -1.48940        3.77030        1.02650
H          0.50220        4.92140        0.07460
H          0.59150        2.81850       -2.06110
H          2.08620        3.56000       -1.39020
H          2.17810        1.43340        0.07900
