16
gdb 16746	4.18703	1.55416	1.48939	3.636	63.89	-0.2442	-0.017	0.2272	886.5501	0.130878	-383.74363	-383.736599	-383.735655	-383.775444	26.061
O         -0.62910        0.61040        0.02350
C         -0.07060        1.67750        0.05120
C          1.43740        1.84750       -0.00800
C          1.85710        2.73180       -1.22490
C          2.07570        4.11420       -0.64980
O          0.98020        4.57150        0.15900
C          2.14140        4.03560        0.81310
C          1.96850        2.59860        1.25440
H         -0.63560        2.63090        0.12400
H          1.85990        0.84340       -0.08060
H          2.79250        2.36260       -1.65970
H          1.10660        2.72750       -2.02270
H          2.58200        4.88460       -1.22560
H          2.70080        4.74240        1.42050
H          1.29250        2.50510        2.11100
H          2.93740        2.18960        1.56150
