14
gdb 20474	6.27591	1.43767	1.26399	3.3051	63.73	-0.243	0.0098	0.2528	926.7862	0.109482	-378.7138	-378.707235	-378.706291	-378.745463	24.061
C          0.32770        1.55030        0.19560
O          1.19330        0.48460       -0.18510
C         -0.18330        0.17630        0.09970
C         -0.46830       -0.65080        1.29280
N         -0.09460       -0.26710        2.51460
N         -0.50030       -1.26370        3.31750
C         -1.12720       -2.26600        2.65530
C         -1.12750       -1.90260        1.32650
H          0.50960        1.96770        1.18330
H          0.08700        2.26710       -0.58930
H         -0.75770       -0.09980       -0.78410
H         -0.32270       -1.19410        4.30530
H         -1.51100       -3.13340        3.16830
H         -1.53550       -2.45770        0.49740
