12
gdb 443	7.42718	3.57756	2.48815	3.5709	52.33	-0.2366	-0.0429	0.1938	505.106	0.097695	-269.27132	-269.266149	-269.265204	-269.299973	18.812
O         -0.01140       -0.02080        0.00390
C         -0.00600        1.18780        0.01000
C         -1.24830        2.09730        0.03150
C         -0.70260        3.53810        0.03130
C          0.79680        3.36210        0.01000
C          1.17810        2.08010       -0.00160
H         -1.87200        1.87470       -0.83890
H         -1.84790        1.86600        0.91650
H         -1.03840        4.11870       -0.83660
H         -1.01470        4.11000        0.91350
H          1.46900        4.21410        0.00520
H          2.19060        1.69810       -0.01730
