11
gdb 21672	7.63955	1.31077	1.1201	5.2614	61.81	-0.2563	-0.0649	0.1914	955.192	0.073548	-393.58372	-393.577131	-393.576187	-393.614462	24.106
N         -0.02540        1.39420        0.14940
C          0.02980        0.02240        0.03900
N         -1.06910       -0.70790        0.00320
O         -0.64990       -2.03400       -0.02090
C          0.69640       -2.05670       -0.01490
C          1.20040       -0.79400        0.02310
C          1.33760       -3.31980       -0.04320
N          1.87970       -4.34180       -0.06730
H          0.71720        1.89260       -0.31780
H         -0.93760        1.78080       -0.05100
H          2.23430       -0.49390        0.04850
