16
gdb 12682	3.34529	1.8789	1.36456	0.6887	60.07	-0.2451	-0.0365	0.2086	890.2612	0.130313	-420.899661	-420.891892	-420.890948	-420.932127	29.04
O          0.19320        1.34250        0.26040
C          0.05940       -0.03720        0.03290
C         -1.39920       -0.54110       -0.09650
C         -1.25450       -1.93070       -0.73780
C         -0.05340       -1.78390       -1.66680
O          0.21690       -2.46040       -2.62680
C          0.73720       -0.52120       -1.26080
O          0.49970        0.47520       -2.25380
H          0.11940        1.76790       -0.60340
H          0.53520       -0.54390        0.88200
H         -1.91690       -0.54990        0.86440
H         -1.94430        0.13110       -0.76780
H         -0.99750       -2.68840        0.01610
H         -2.13040       -2.29900       -1.27600
H          1.81000       -0.72350       -1.15260
H          0.72100        0.09160       -3.11030
