15
gdb 18183	4.26562	1.81253	1.47871	1.97	71.3	-0.2336	0.0065	0.2401	851.8842	0.119667	-325.463605	-325.456873	-325.455929	-325.494362	26.492
C         -0.03230       -1.25620       -0.13590
C         -0.00330       -0.05860       -0.04200
C          0.00870        1.39760        0.05470
C         -0.60320        1.94180        1.34720
C          0.19990        2.81010        1.96070
C          1.49930        2.93560        1.23630
N          2.24490        1.64350        1.21200
C          1.41100        2.02860        0.06180
H         -0.04500       -2.31530       -0.20830
H         -0.54990        1.79960       -0.80460
H         -1.57230        1.60560        1.69490
H         -0.02230        3.33160        2.88380
H          2.05640        3.86600        1.22030
H          3.21790        1.82750        0.97200
H          1.88760        2.25080       -0.88600
