15
gdb 13741	3.10591	1.67044	1.36802	3.5329	68.33	-0.244	0.0166	0.2606	938.1586	0.117768	-362.650747	-362.642539	-362.641595	-362.683548	30.34
N          0.10860        1.06210        0.61570
C          0.06470        0.01260       -0.26440
O          0.97910       -0.24350       -1.02270
C         -1.21710       -0.77010       -0.23230
C         -1.48530       -1.71080       -1.37170
C         -1.15010       -2.29440       -0.02110
C          0.08690       -2.97410        0.22620
C          1.09790       -3.57830        0.46690
H          0.99770        1.52390        0.72560
H         -0.54430        1.12510        1.37810
H         -2.06490       -0.28320        0.23910
H         -2.50250       -1.81330       -1.73060
H         -0.70290       -1.74960       -2.12010
H         -1.99240       -2.68740        0.54190
H          2.00340       -4.09820        0.65790
