13
gdb 17512	5.06899	1.84304	1.68123	4.6351	61.8	-0.2603	-0.0089	0.2514	761.7208	0.096157	-361.398232	-361.392314	-361.391369	-361.42817	23.186
N          0.09220       -1.16800        0.03720
C          0.03530       -0.01450       -0.00290
C         -0.08660        1.41960       -0.07170
C         -1.14270        2.22330        0.74390
C         -0.90580        3.32110       -0.29110
C          0.58030        3.18420       -0.66670
O          1.14930        2.15510        0.14740
C         -0.42610        2.31660       -1.33430
H         -2.13870        1.78690        0.64870
H         -0.88690        2.40270        1.79150
H         -1.47180        4.22830       -0.45250
H          1.21820        3.97870       -1.02690
H         -0.69480        2.09660       -2.35720
