18
gdb 4946	5.14984	1.28838	1.11988	3.6815	74.97	-0.2109	0.0377	0.2486	1116.3899	0.154797	-344.034985	-344.026692	-344.025747	-344.068267	29.76
C          0.01240        1.61210        0.06130
C          0.03480        0.08290        0.00160
N          0.66820       -0.52570        1.16030
C          1.92010       -1.06080        1.22070
N          2.22520       -1.49040        2.42360
C          1.11780       -1.22220        3.20120
C          1.07490       -1.57610        4.65250
C          0.14780       -0.62430        2.43590
H          1.02840        2.01250        0.12140
H         -0.46810        2.01770       -0.83430
H         -0.54320        1.96300        0.93550
H         -0.98400       -0.31030       -0.08610
H          0.58410       -0.25490       -0.88230
H          2.55540       -1.11170        0.34770
H          0.12190       -1.28360        5.10210
H          1.20590       -2.65360        4.80040
H          1.87980       -1.07720        5.20330
H         -0.84490       -0.27470        2.66940
