22
gdb 15707	2.54653	1.76433	1.23441	1.2676	77.09	-0.2614	0.0762	0.3376	1075.5493	0.20145	-350.219194	-350.210258	-350.209314	-350.252758	33.402
C         -0.56770        1.44140       -0.06190
C         -0.02050        0.01500        0.00910
C          1.02270       -0.32000       -1.08360
C          1.86880       -1.49630       -0.52210
C          1.37300       -1.72090        0.93110
C          0.66620       -0.41000        1.33120
C          1.65070        0.62470        1.87810
O          2.23060        0.08810        3.06170
H          0.23250        2.18700        5.41580
H         -1.09250        1.60780       -1.00880
H         -1.27710        1.64240        0.74840
H         -0.86770       -0.67250       -0.12070
H          0.54160       -0.56390       -2.03550
H          1.65590        0.55420       -1.27500
H          1.75820       -2.40350       -1.12260
H          2.93390       -1.24650       -0.53870
H          0.64820       -2.54180        0.95700
H          2.17630       -1.97710        1.62470
H         -0.07510       -0.58720        2.11900
H          2.42750        0.85240        1.13000
H          1.12350        1.56500        2.09760
H          2.86220        0.72790        3.40210
