15
gdb 16830	3.77957	1.88903	1.43009	2.8987	60.55	-0.2418	-0.0234	0.2184	846.1165	0.120112	-399.796457	-399.789654	-399.78871	-399.827558	26.228
O         -0.02180        1.42060        0.00670
C          0.02120        0.01350       -0.09120
C          0.80920       -0.69240        1.04560
C          0.06320       -2.00110        1.32010
O          0.52960       -3.02740        1.74290
C         -1.35430       -1.80800        0.85330
N         -1.91900       -0.50310        1.31810
C         -1.37000       -0.61670       -0.03930
H         -0.54930        1.62000        0.79080
H          0.48520       -0.20300       -1.05870
H          1.85640       -0.88310        0.80740
H          0.77880       -0.07680        1.95110
H         -2.00800       -2.66360        0.73320
H         -2.93330       -0.57580        1.28470
H         -2.03300       -0.54600       -0.89480
