14
gdb 11778	4.68631	1.81352	1.66299	4.13	62.14	-0.2493	-0.0345	0.2148	787.6541	0.106542	-382.488393	-382.482004	-382.481059	-382.519026	24.561
O         -0.05130       -0.04680        0.22820
C          0.01320        1.12780       -0.01710
C          1.26850        1.93960       -0.00510
C          1.61830        2.95030        1.14950
C          3.00300        2.62190        0.51520
O          2.51590        1.25530        0.29730
C          2.85370        3.23650       -0.89000
C          1.65270        2.78400       -1.25020
H         -0.89170        1.72820       -0.27260
H          1.23420        3.96960        1.08770
H          1.48860        2.50760        2.13950
H          3.94640        2.68540        1.05410
H          3.55840        3.86770       -1.41050
H          1.07050        2.92310       -2.14860
