22
gdb 13213	4.13742	1.14457	0.9597	1.4584	78.51	-0.2555	0.0717	0.3271	1286.8683	0.199718	-350.199929	-350.190618	-350.189674	-350.234026	34.417
C          0.01860        1.58380       -0.02910
C         -0.02150        0.05690        0.06870
C         -1.43920       -0.51840       -0.04410
O         -2.06800       -0.13500       -1.26890
C         -1.47560       -2.03040        0.13360
C         -1.17860       -2.63890        1.53560
C         -2.32340       -3.65980        1.29380
C         -2.85900       -2.73780        0.16500
H          1.04650        1.95820       -0.00510
H         -0.45180        1.92010       -0.95670
H         -0.52470        2.04460        0.80340
H          0.59750       -0.38610       -0.72590
H          0.41990       -0.27420        1.01710
H         -2.06900       -0.06150        0.73240
H         -1.57320       -0.54540       -1.98730
H         -0.82730       -2.49630       -0.62220
H         -0.17510       -3.02870        1.72250
H         -1.42860       -1.93210        2.33440
H         -1.94320       -4.60680        0.89990
H         -2.99060       -3.87880        2.13080
H         -3.63830       -2.05870        0.52450
H         -3.21290       -3.20840       -0.75480
