17
gdb 5904	3.9204	1.26234	1.21352	3.6028	74.	-0.2796	0.021	0.3005	1055.6038	0.139371	-326.717834	-326.70864	-326.707696	-326.751103	33.588
C          0.05110        1.56490       -0.00960
C          0.03330        0.02220        0.02560
C          0.82430       -0.50460        1.24140
C         -1.43720       -0.51290        0.04920
C         -2.18800       -0.08450        1.22150
C         -2.80500        0.27080        2.19010
C          0.65650       -0.48960       -1.20610
N          1.14110       -0.89370       -2.17470
H          1.07770        1.93800       -0.04280
H         -0.48000        1.94520       -0.88650
H         -0.43650        1.95370        0.88790
H          0.35090       -0.15360        2.16170
H          0.84370       -1.59780        1.25530
H          1.85570       -0.14430        1.21600
H         -1.94840       -0.17680       -0.86030
H         -1.41370       -1.60800        0.00510
H         -3.36180        0.57740        3.04100
