18
gdb 19761	3.06813	2.87301	2.40187	0.4667	74.28	-0.22	0.0274	0.2475	706.2088	0.158692	-310.689076	-310.683571	-310.682627	-310.718119	24.415
C         -0.00440        1.54670        0.01060
C          1.47180        1.90040        0.02620
C          2.21030        0.73270        0.62260
C          1.18180       -0.32890        0.96850
C          0.03100       -0.01150       -0.03460
C          0.48700       -0.42600       -1.41100
C          1.64740        0.10180       -1.81440
C          2.33790        1.01650       -0.87850
H         -0.48210        1.89350        0.93440
H         -0.55020        1.96980       -0.83860
H          1.78400        2.92560        0.18710
H          3.09020        0.86000        1.24200
H          1.55140       -1.35320        0.85850
H          0.83890       -0.19540        2.00120
H         -0.91870       -0.46680        0.24980
H         -0.10020       -1.10690       -2.01700
H          2.09210       -0.11070       -2.78120
H          3.27920        1.44800       -1.19900
