14
gdb 17904	3.10522	2.49213	2.27044	2.5798	61.58	-0.2314	-0.0157	0.2158	691.1377	0.109075	-382.542998	-382.537155	-382.536211	-382.572762	23.194
O         -0.00520        0.05910       -0.03130
C         -0.00660        1.24930        0.00070
C         -1.16180        2.30100        0.04700
C         -0.67900        3.06710        1.30760
O          0.75790        3.02500        1.22670
C          1.10420        2.32620        0.00100
C          0.62830        3.11200       -1.19070
C         -0.71870        3.08480       -1.16440
H         -2.18170        1.92650        0.07580
H         -1.01770        4.10910        1.32180
H         -1.00680        2.56750        2.22750
H          2.14170        2.01020        0.05760
H          1.26400        3.60150       -1.91610
H         -1.39700        3.54600       -1.87080
