18
gdb 7973	3.56347	1.6001	1.24314	2.8901	69.92	-0.2497	0.0042	0.2539	1004.6735	0.153812	-384.955951	-384.947845	-384.946901	-384.988229	30.954
C         -0.21640        1.47630       -0.01970
C         -0.00830       -0.00360       -0.06900
C         -0.29600       -0.82240       -1.08960
C          0.09880       -2.24270       -0.80630
O          1.31360       -2.62780       -1.48090
C          0.30930       -2.24920        0.73900
O          1.30410       -3.15700        1.13940
C          0.58610       -0.76470        1.09730
H          0.72880        1.99920        0.17300
H         -0.63820        1.86050       -0.95230
H         -0.89130        1.74810        0.80160
H         -0.71190       -0.50940       -2.04170
H         -0.63540       -2.99010       -1.12030
H          1.84730       -1.83050       -1.57630
H         -0.63450       -2.54810        1.21150
H          1.82580       -3.32320        0.33910
H          1.66560       -0.58360        1.18690
H          0.14490       -0.47500        2.05780
