12
gdb 611	5.82523	3.24687	2.56193	3.1275	47.64	-0.2601	-0.0431	0.2169	529.1334	0.094493	-306.353871	-306.347682	-306.346738	-306.383531	21.263
C          0.17370        1.54820       -0.00660
C          0.00250        0.05870        0.11950
O          1.13550       -0.75740       -0.12500
C          0.61900       -0.76520        1.20130
C          1.44530       -0.14400        2.28200
O          2.35600        0.62460        2.10530
H          1.10530        1.87380        0.45780
H          0.19470        1.82510       -1.06580
H         -0.66910        2.06940        0.45930
H         -0.92680       -0.34510       -0.28880
H          0.10470       -1.68150        1.49630
H          1.13050       -0.44710        3.30640
