16
gdb 16581	2.59807	2.20687	1.82055	3.1314	65.48	-0.2424	-0.0019	0.2405	820.5905	0.130374	-379.870924	-379.863282	-379.862338	-379.902583	28.71
C          0.03590        1.54050        0.07600
C          0.07120        0.04610       -0.15930
C          0.70720       -0.67170       -1.28480
C          2.03080       -0.06740       -1.75570
O          2.10210        1.06880       -2.57320
C          2.41460       -0.03800       -0.26530
N          3.34110        0.38950        0.46740
N          1.25660       -0.80370        0.15570
H          0.96280        2.04600       -0.20430
H         -0.79380        1.98760       -0.48170
H         -0.12500        1.74590        1.13900
H         -0.82660       -0.45240        0.20160
H          0.22600       -1.51950       -1.76020
H          2.62730       -0.83560       -2.25910
H          1.51290        1.74140       -2.21790
H          4.03810        0.87800       -0.10000
