16
gdb 2311	7.32576	1.38355	1.26267	1.735	66.96	-0.2443	0.0584	0.3027	956.9746	0.13545	-288.582662	-288.574811	-288.573867	-288.61485	28.362
C          0.07430        1.53900       -0.22170
C          0.00310        0.05560        0.05450
N          1.26850       -0.69890        0.04240
C          0.50400       -0.60320        1.29240
C          1.15890        0.14460        2.44600
C          1.96950       -0.73420        3.28330
C          2.61910       -1.48010        3.96600
H          0.96640        1.98800        0.22010
H          0.11270        1.72360       -1.30060
H         -0.80800        2.05300        0.17540
H         -0.85970       -0.43270       -0.39900
H          1.15060       -1.61170       -0.38730
H         -0.04000       -1.48990        1.61370
H          1.78410        0.94930        2.04690
H          0.38170        0.61830        3.06060
H          3.20410       -2.12830        4.56980
