17
gdb 15699	3.56832	1.74636	1.23468	5.0135	64.55	-0.2514	0.0223	0.2737	960.4087	0.144708	-401.048926	-401.041447	-401.040503	-401.080821	28.037
O          0.04790        1.42760       -0.05490
C          0.05990        0.02150       -0.10220
C         -1.35560       -0.56150        0.01590
C         -1.47180       -2.09450       -0.02090
C         -2.67470       -2.40920        0.89870
N         -2.68120       -1.27010        1.80410
C         -1.98890       -0.18710        1.35980
O         -1.88430        0.88430        1.93580
H         -0.47680        1.65870        0.72860
H          0.50530       -0.27010       -1.06040
H          0.69010       -0.41370        0.69400
H         -1.97440       -0.09980       -0.76480
H         -1.60680       -2.49680       -1.02640
H         -0.56460       -2.54230        0.40000
H         -3.61190       -2.47360        0.32870
H         -2.55090       -3.34890        1.44530
H         -3.25360       -1.21290        2.63160
