20
gdb 11991	2.53827	2.11658	1.71284	1.173	74.09	-0.2411	0.0738	0.315	903.0004	0.175642	-348.979692	-348.971266	-348.970322	-349.011602	33.167
C         -0.44830        1.54870        0.36580
C         -0.10860        0.07040        0.21330
C          0.28700       -0.46520       -1.17240
C          1.61740        0.08110       -1.60740
C          1.58540       -1.04100       -0.60940
C          1.23700       -0.53840        0.79540
C          2.22110        0.38190        1.50620
O          0.98040       -1.68970        1.59220
H          0.32100        2.19740       -0.06420
H         -1.39170        1.78040       -0.14100
H         -0.56490        1.82620        1.41970
H         -0.91690       -0.54100        0.62570
H         -0.39820       -0.91460       -1.88140
H          1.92980       -0.20740       -2.60610
H          1.93980        1.08020       -1.32610
H          2.04550       -2.00430       -0.79190
H          2.49260        1.24900        0.89860
H          1.79230        0.76080        2.44290
H          3.13420       -0.16970        1.75020
H          0.66620       -1.38760        2.45160
