16
gdb 4124	3.75958	1.65556	1.28865	2.1755	69.6	-0.2271	0.0124	0.2395	951.6997	0.129602	-379.834021	-379.826253	-379.825309	-379.865857	29.298
C         -0.05060        1.55490        0.01010
C          0.10980        0.06850       -0.02010
N         -0.79700       -0.85370        0.74770
C          0.66180       -0.93140        0.95990
C          1.20160       -1.82950       -0.16970
C          0.65370       -0.77380       -1.13220
N          0.76260       -0.50660       -2.36390
O          1.45230       -1.52880       -3.04470
H          0.83530        2.04800       -0.40130
H         -0.91360        1.86830       -0.58700
H         -0.19930        1.91150        1.03500
H         -1.18100       -0.28820        1.50690
H          1.10490       -0.75730        1.93230
H          2.29220       -1.88990       -0.22150
H          0.76840       -2.83030       -0.22880
H          1.46550       -1.19570       -3.94820
