16
gdb 18046	3.6072	2.34189	1.71332	3.1433	64.69	-0.228	0.0336	0.2616	775.2038	0.133866	-379.90329	-379.896912	-379.895968	-379.933993	24.458
C          0.04250        1.56610        0.18180
N          1.49390        1.51640       -0.10790
C          1.35600        0.16450       -0.70650
C          2.42130       -0.84920       -0.31730
N          2.32370       -1.34260        1.04970
C          1.23480       -1.20480        1.66940
O          0.06090       -0.63850        1.28160
C         -0.00410        0.03040        0.02380
H         -0.21870        1.95360        1.17120
H         -0.56760        2.07030       -0.58110
H          1.84690        2.23550       -0.72920
H          1.20910        0.17720       -1.79660
H          2.37060       -1.71320       -0.99490
H          3.41600       -0.40880       -0.45480
H          1.12240       -1.58320        2.68380
H         -0.84250       -0.39870       -0.52610
