19
gdb 14062	3.3032	1.61427	1.44541	2.0851	71.91	-0.2268	0.0699	0.2967	972.7195	0.164186	-365.006267	-364.997741	-364.996797	-365.039113	31.063
C         -0.09910        1.58680        0.26190
C          0.02040        0.08230        0.14870
N          1.26600       -0.60680       -0.22620
C          2.47560        0.15030       -0.51460
C          0.79890       -0.70920        1.13610
C          1.46500       -0.24230        2.43450
O          1.09240       -1.47560        3.08280
C          0.49500       -2.00690        1.87670
H          0.73300        2.03820        0.80750
H         -0.14850        2.05430       -0.72750
H         -1.02040        1.84500        0.79470
H         -0.85770       -0.39210       -0.29100
H          2.64400        1.02720        0.12800
H          3.33890       -0.51400       -0.40630
H          2.44450        0.49160       -1.55390
H          2.55500       -0.11270        2.38870
H          1.02370        0.63290        2.92890
H         -0.56420       -2.25640        2.01800
H          1.03070       -2.88640        1.49730
