14
gdb 12187	3.12442	1.66849	1.38754	0.9382	64.8	-0.2528	-0.0401	0.2127	928.5521	0.103994	-382.499459	-382.491421	-382.490476	-382.532314	28.624
C          0.41160        1.51060       -0.08070
C          0.03250        0.04820        0.07310
O          0.77800       -0.84340       -0.79620
C          1.32640       -1.63870        0.28550
C          2.77190       -1.66820        0.34530
C          3.97120       -1.67730        0.42190
C          0.58890       -0.70030        1.28980
O          0.51520       -0.60540        2.47170
H          1.48590        1.65140        0.06400
H          0.14580        1.86240       -1.08150
H         -0.12810        2.11360        0.65580
H         -1.05080       -0.09380       -0.04940
H          0.91020       -2.65610        0.28520
H          5.03160       -1.69190        0.48390
