18
gdb 8177	2.69418	2.58298	1.75713	1.6836	66.83	-0.2402	0.0719	0.3122	815.5816	0.154063	-384.925167	-384.917766	-384.916822	-384.956251	29.256
C         -0.06250        1.49750        0.02810
C          0.03770        0.00120       -0.01320
C          0.74570       -0.80800       -1.12730
C         -0.29590       -1.83020       -0.63320
C          0.18630       -2.20600        0.78070
C          0.46570       -0.74910        1.27400
O          1.82260       -0.45450        1.55870
O         -1.20060       -0.71560       -0.34090
H          0.90630        1.92200        0.30780
H         -0.36050        1.90140       -0.94310
H         -0.80160        1.80980        0.77380
H          0.50170       -0.41960       -2.11690
H          1.80920       -1.02860       -1.02210
H         -0.73000       -2.60130       -1.26940
H         -0.59650       -2.71030        1.35160
H          1.09400       -2.81650        0.78850
H         -0.18370       -0.46410        2.11160
H          2.06550       -0.90050        2.37520
