16
gdb 16000	3.9232	1.49963	1.22216	2.34	60.68	-0.2564	0.0532	0.3095	979.1549	0.129531	-420.820642	-420.812944	-420.812	-420.853119	27.962
O          0.01790        1.41730       -0.20500
C          0.01750        0.10060        0.30700
C         -1.33480       -0.55500        0.08230
O         -1.64770       -0.57180       -1.34090
C         -1.80310       -2.01090       -1.36170
C         -1.43340       -2.07910        0.11560
C         -0.72680       -3.08580        0.90450
O         -2.12950       -2.82420        1.08490
H         -0.28660        1.34750       -1.11830
H          0.80280       -0.51690       -0.15870
H          0.23320        0.16980        1.37910
H         -2.11980       -0.04060        0.65040
H         -2.83370       -2.31400       -1.58200
H         -1.11760       -2.49280       -2.06840
H         -0.48580       -4.05000        0.45920
H         -0.08720       -2.78200        1.73180
