16
gdb 5121	3.45138	2.02224	1.29445	0.3327	67.95	-0.1728	0.0609	0.2337	919.1874	0.131537	-379.945056	-379.93687	-379.935926	-379.977567	30.078
C          0.04140        1.46160        0.00090
N         -0.02910        0.01660       -0.00430
C         -0.13930       -0.80040       -1.12230
C         -0.09270       -2.10900       -0.71310
C          0.05850       -2.10600        0.71070
N          0.15230       -3.14510        1.68710
C          0.09680       -0.78470        1.09120
O          0.22870       -0.25290        2.32730
H          1.06970        1.82220       -0.12240
H         -0.56940        1.85750       -0.81410
H         -0.34600        1.84050        0.94850
H         -0.24480       -0.36180       -2.10110
H         -0.16980       -2.97520       -1.35320
H          0.95410       -3.74660        1.52160
H         -0.66690       -3.74580        1.67840
H          0.27260       -1.02290        2.91480
