19
gdb 14762	11.44222	0.54033	0.52432	5.0724	73.27	-0.272	0.0369	0.3089	1996.9681	0.164491	-365.080302	-365.070571	-365.069626	-365.11584	33.156
O         -0.05060        1.46230        0.01040
C          0.04030        0.04640        0.00200
C         -1.37690       -0.51200        0.01240
C         -1.41570       -2.04260        0.00450
C         -2.84320       -2.59710        0.01510
C         -2.86440       -4.13860        0.00710
C         -4.21940       -4.68580        0.01730
N         -5.29750       -5.10190        0.02520
H          0.84060        1.82320        0.00400
H          0.57570       -0.31440       -0.89200
H          0.59250       -0.32390        0.88170
H         -1.89540       -0.12560        0.89830
H         -1.91200       -0.11620       -0.85930
H         -0.88580       -2.42110       -0.88070
H         -0.86910       -2.43050        0.87550
H         -3.37950       -2.23660        0.89990
H         -3.39610       -2.22720       -0.85560
H         -2.34340       -4.52060       -0.87900
H         -2.32660       -4.52990        0.87890
