20
gdb 8945	4.10332	0.9921	0.9514	2.2771	67.16	-0.2551	0.0605	0.3156	1284.4674	0.175025	-423.264267	-423.254241	-423.253296	-423.299134	36.012
C         -0.03690        1.61630       -0.09410
C          0.01290        0.08310       -0.00430
C          0.71920       -0.51130       -1.22660
O          0.01210       -0.10900       -2.39120
C          0.66340       -0.44980        1.28410
O          2.02030       -0.01080        1.44920
C         -0.11250       -0.14760        2.56920
O          0.54990       -0.69880        3.68820
H          0.96870        2.05530       -0.06130
H         -0.47890        1.91060       -1.04750
H         -0.62890        2.05940        0.71100
H         -1.01930       -0.29330       -0.01870
H          1.76300       -0.16410       -1.24800
H          0.73920       -1.60920       -1.13790
H          0.50850       -0.40100       -3.16080
H          0.75030       -1.54080        1.21040
H          2.01610        0.95360        1.45710
H         -0.24260        0.94280        2.68280
H         -1.11250       -0.59330        2.52310
H          1.48920       -0.53350        3.53270
