10
gdb 1830	6.67626	2.40724	1.78937	2.4678	45.	-0.3014	-0.0204	0.281	629.7706	0.067972	-396.50754	-396.502087	-396.501143	-396.537093	19.209
N         -0.07130        1.26530        0.00790
C         -0.02590        0.01440        0.00080
C         -1.19610       -0.93870        0.00240
O         -0.58270       -2.22970       -0.00810
C          0.76130       -2.10710       -0.01500
O          1.54220       -2.99620       -0.02490
O          1.10940       -0.76900       -0.01010
H          0.85960        1.68270        0.00470
H         -1.81290       -0.82910        0.89820
H         -1.82320       -0.81940       -0.88490
