16
gdb 13654	5.41077	0.87817	0.80507	4.6247	80.24	-0.2582	-0.0545	0.2037	1393.094	0.128625	-346.576163	-346.567482	-346.566538	-346.610358	29.973
C         -0.05650        1.52670       -0.14010
C          0.02420        0.02400       -0.01740
C          1.31850       -0.70120       -0.18710
C          0.67770       -0.64120        1.20190
C          1.28000        0.14350        2.22630
C          1.78040        0.79560        3.11600
C          2.38980        1.59590        4.13880
O          2.43020        1.30630        5.31460
H          0.84300        2.00600        0.25540
H         -0.16340        1.81980       -1.18980
H         -0.91540        1.92350        0.41060
H         -0.85940       -0.50720       -0.36050
H          1.33040       -1.66910       -0.67510
H          2.21570       -0.10910       -0.32880
H          0.20820       -1.55760        1.54630
H          2.84130        2.53790        3.76310
