11
gdb 3028	15.08067	1.04888	1.04316	4.0364	67.31	-0.2666	-0.0524	0.2142	1044.3824	0.079328	-302.254301	-302.247775	-302.246831	-302.285122	22.429
N          0.06830       -3.70790       -0.03630
C          0.04630       -2.54600       -0.01950
C          0.02270       -1.18250        0.00300
C          0.00340        0.02710        0.03290
C         -0.01160        1.45610        0.04030
C          0.51100        2.18900        1.23960
N          1.26530        2.21020       -0.01050
H         -0.80990        1.91150       -0.53950
H          0.04130        3.12950        1.51090
H          0.87460        1.59220        2.07050
H          2.04580        1.55900        0.03760
