12
gdb 1410	8.22326	1.39293	1.24948	4.1242	51.87	-0.2981	-0.0634	0.2347	873.592	0.088306	-360.529992	-360.522703	-360.521759	-360.561849	24.692
O          0.06750        1.51520       -0.05740
C          0.02320        0.12400       -0.02340
C          0.69480       -0.48620       -1.28020
C         -0.01850       -0.13760       -2.50500
N         -0.59070        0.12150       -3.47420
C          0.70300       -0.40760        1.22870
O          1.18080        0.33850        2.04570
H          0.52120        1.78910        0.75590
H         -1.02040       -0.23610        0.00750
H          1.72360       -0.11670       -1.34670
H          0.73340       -1.57900       -1.19740
H          0.72810       -1.50940        1.35200
