12
gdb 2660	9.86431	0.93469	0.89945	4.0288	58.96	-0.2686	0.0091	0.2777	1201.1335	0.088504	-323.345473	-323.337497	-323.336553	-323.37934	25.811
O          0.03380        1.26080        0.66710
C         -0.01150        0.11060       -0.16510
C         -1.35910       -0.44610       -0.15120
C         -2.46260       -0.92110       -0.14960
C         -3.81010       -1.48360       -0.14320
C         -3.86420       -2.85100        0.39190
N         -3.92000       -3.92690        0.80690
H          0.93890        1.58870        0.65590
H          0.26370        0.35400       -1.20420
H          0.69220       -0.66490        0.17800
H         -4.47900       -0.85340        0.45700
H         -4.23020       -1.49570       -1.15710
