18
gdb 21029	3.8167	1.6963	1.20077	2.3028	76.12	-0.2232	0.0341	0.2572	1031.0906	0.153675	-344.025219	-344.016394	-344.015449	-344.058995	30.869
C         -0.02950        1.36990       -0.03820
N         -0.00150       -0.07310        0.04040
N         -0.02730       -0.80540       -1.09950
C          0.00760       -2.07500       -0.69970
C         -0.00710       -3.18640       -1.70200
C          0.05630       -2.15690        0.71090
C          0.04900       -0.84970        1.15690
C          0.08550       -0.28020        2.53680
H          0.86630        1.81090        0.41250
H         -0.06560        1.63410       -1.09430
H         -0.91200        1.77960        0.46540
H          0.88780       -3.81360       -1.62040
H         -0.87430       -3.84180       -1.56330
H         -0.04650       -2.77440       -2.71270
H          0.09200       -3.04400        1.32410
H          0.96290        0.35830        2.69610
H         -0.80100        0.32740        2.75560
H          0.12450       -1.08740        3.27110
