14
gdb 23736	3.3207	2.27528	1.36148	2.9467	66.32	-0.2499	-0.0251	0.2248	847.1832	0.108319	-386.762025	-386.755372	-386.754428	-386.792938	24.858
C         -0.03000        1.53250        0.02070
C         -0.00670        0.02980       -0.02770
C         -0.03730       -0.70870       -1.20530
C         -0.01230       -2.10320       -1.16010
C          0.04320       -2.71970        0.08090
N          0.07380       -2.03600        1.23360
C          0.04880       -0.73020        1.14750
F          0.07990       -0.06400        2.30530
H          0.86180        1.92700        0.51900
H         -0.07560        1.95430       -0.98620
H         -0.89350        1.89760        0.58640
H         -0.08070       -0.18950       -2.15820
H         -0.03550       -2.69420       -2.06800
H          0.06450       -3.80230        0.16810
