13
gdb 20513	4.9866	1.62587	1.23541	0.525	62.39	-0.2677	-0.0745	0.1933	909.7713	0.095072	-398.615411	-398.608347	-398.607403	-398.647287	24.816
C         -0.02380        1.48900       -0.08110
C         -0.02560       -0.01790        0.03570
O         -0.04380       -0.60840        1.09430
C         -0.00300       -0.79670       -1.22700
C          0.00140       -2.14190       -1.45390
C          0.02650       -2.23540       -2.86600
N          0.03630       -1.05310       -3.44050
O          0.01770       -0.13720       -2.40390
H          0.86320        1.82800       -0.62670
H         -0.89250        1.82770       -0.65540
H         -0.04030        1.92580        0.91740
H         -0.01140       -2.92510       -0.71580
H          0.03770       -3.11810       -3.48920
