15
gdb 4519	3.6804	1.7647	1.20447	2.3309	66.12	-0.1632	0.0518	0.215	956.07	0.120444	-395.996906	-395.988926	-395.987982	-396.028585	30.419
N          0.15020        1.34630        0.10220
C         -0.04880       -0.02770        0.03980
C         -1.16850       -0.80460        0.09520
C         -0.69510       -2.16470        0.07560
N         -1.48350       -3.31640        0.19450
C          0.66180       -2.12040       -0.00080
N          1.60750       -3.13920       -0.04300
O          1.07110       -0.77260       -0.00920
H          0.97950        1.63850       -0.39940
H         -0.65650        1.87130       -0.20640
H         -2.19060       -0.46730        0.16170
H         -2.30950       -3.28750       -0.39050
H         -0.94100       -4.14490       -0.02190
H          2.20310       -3.10650       -0.86480
H          2.20400       -3.17940        0.77850
