14
gdb 15219	2.83636	1.65079	1.3351	3.5658	65.31	-0.2466	-0.0266	0.2199	939.3305	0.103945	-382.492457	-382.48411	-382.483166	-382.525493	29.598
O         -0.08530        1.39600        0.06850
C         -0.08880        0.01180       -0.00370
C         -1.41090       -0.74020       -0.02020
C         -2.69530        0.00270        0.03680
O         -3.67960       -0.42810        0.58630
C         -0.51520       -0.66670       -1.28140
C         -0.86140        0.16820       -2.39290
C         -1.08780        0.91960       -3.30610
H         -0.05360        1.74950       -0.83070
H          0.71760       -0.45130        0.55980
H         -1.43990       -1.70580        0.47230
H         -2.69310        0.99460       -0.45560
H         -0.01990       -1.59820       -1.53670
H         -1.32010        1.55130       -4.12810
