12
gdb 11218	4.84563	1.49981	1.32605	3.59	50.62	-0.284	-0.0621	0.2219	875.4769	0.083483	-455.66435	-455.657522	-455.656578	-455.696451	23.26
O         -0.81050        0.81450        0.52190
C          0.23940        0.80850       -0.06150
C          1.27720        1.92260        0.08720
C          1.37520        2.49270        1.51050
O          2.55790        1.87300        2.02250
C          3.27420        1.31560        1.01650
O          4.34700        0.82200        1.12780
O          2.58050        1.39940       -0.16040
H          0.53700        0.00230       -0.76400
H          1.05910        2.69120       -0.66290
H          1.50380        3.57840        1.52420
H          0.51610        2.21030        2.12080
