17
gdb 3446	4.41247	2.79721	2.08613	1.4415	63.51	-0.2474	0.0908	0.3382	683.1543	0.14991	-309.71738	-309.711022	-309.710078	-309.747226	24.883
C          0.03940        1.55210       -0.03520
C          0.04950        0.03380        0.05080
O          0.74950       -0.47940       -1.08770
C          1.22320       -1.78560       -0.77710
C          1.52100       -1.76760        0.71220
C          2.27050       -0.55930        1.21210
C          0.76250       -0.57880        1.24960
H          1.05670        1.94980        0.01810
H         -0.41060        1.87680       -0.97760
H         -0.54400        1.97550        0.78840
H         -0.99110       -0.33670        0.04390
H          0.46080       -2.55040       -1.00060
H          2.09520       -1.97450       -1.41270
H          1.57810       -2.70690        1.24950
H          2.79150       -0.65120        2.15840
H          2.76290        0.07560        0.48220
H          0.24540       -0.61110        2.20140
