14
gdb 15326	3.22581	1.31767	0.99745	4.3121	71.92	-0.2556	0.0046	0.2602	1150.0381	0.106222	-341.541002	-341.532562	-341.531618	-341.576194	28.506
C          0.07730        1.50370        0.03220
C          0.05680        0.05000        0.05850
C          0.02650       -1.15290        0.08990
C         -0.00500       -2.58590        0.09310
N         -0.61220       -3.26660        1.25140
C         -1.29040       -3.36570       -0.04920
C         -2.56380       -2.70040       -0.17640
N         -3.58800       -2.18420       -0.31860
H          0.81260        1.87560       -0.68930
H         -0.90230        1.90380       -0.25010
H          0.33590        1.91260        1.01490
H          0.85330       -3.07050       -0.36930
H         -0.12320       -4.13730        1.44490
H         -1.22900       -4.29980       -0.60180
