16
gdb 7311	3.58458	1.28429	1.00035	1.5583	62.95	-0.2606	-0.0316	0.229	1130.2382	0.126477	-420.921548	-420.912306	-420.911362	-420.956836	31.209
C          1.07750        1.67710       -0.47790
C          0.28460        0.43960       -0.07700
O          0.50160       -0.62330       -1.01800
C         -0.46550       -0.88960       -1.91960
O         -0.35570       -1.73510       -2.75330
C          0.64410       -0.05140        1.33970
C          0.69950       -1.54270        1.57630
O          0.84020        0.76360        2.20930
H          2.13360        1.42370       -0.60430
H          0.70270        2.08670       -1.41950
H          0.99030        2.43000        0.30700
H         -0.79100        0.67600       -0.04980
H         -1.35830       -0.24580       -1.79030
H         -0.24240       -2.01710        1.27930
H          1.47810       -1.99450        0.95410
H          0.89780       -1.73200        2.63140
