10
gdb 21548	3.7446	1.99707	1.30351	3.7649	58.62	-0.2549	-0.0822	0.1727	822.008	0.061179	-409.622095	-409.615566	-409.614622	-409.652874	23.477
N          0.07960        1.38300        0.18240
C         -0.02350        0.03040        0.05720
C         -1.10790       -0.81020        0.01330
O         -0.63290       -2.08280       -0.05060
N          0.74750       -1.99440       -0.04810
N          1.09140       -0.77700        0.01390
C         -2.48860       -0.56160        0.01740
N         -3.61820       -0.30000        0.01900
H          0.97040        1.77210       -0.08640
H         -0.72070        1.93270       -0.08870
