22
gdb 8313	6.02342	0.88505	0.8556	0.9795	80.07	-0.2418	0.0876	0.3293	1463.874	0.199053	-350.198701	-350.189351	-350.188407	-350.233215	34.123
C         -0.04090        1.51160        0.07540
C          0.27620        0.02890       -0.02400
O          0.37670       -0.49780        1.28540
C          0.63840       -1.87430        1.32140
C          2.07770       -2.38380        1.01880
C          1.92750       -3.35520        2.22600
C          3.12430       -3.59140        3.13380
C          0.75930       -2.46340        2.73870
H          0.74990        2.03670        0.61870
H         -0.12900        1.95240       -0.92220
H         -0.98270        1.66660        0.60950
H         -0.51430       -0.49980       -0.58400
H          1.21820       -0.12740       -0.57430
H         -0.10380       -2.41990        0.71640
H          2.29130       -2.80870        0.03480
H          2.80470       -1.59400        1.23720
H          1.53290       -4.31640        1.87790
H          3.53520       -2.64180        3.49490
H          2.84780       -4.18940        4.00970
H          3.92550       -4.12320        2.60800
H          1.12350       -1.69190        3.42450
H         -0.11850       -2.94510        3.17550
