13
gdb 4517	3.66402	1.82278	1.22372	1.1873	56.41	-0.1691	0.0576	0.2267	902.8649	0.096397	-431.946686	-431.938945	-431.938001	-431.978235	28.682
N          0.08820        1.40350       -0.16610
C         -0.00070        0.00790       -0.08170
C         -1.11610       -0.77430       -0.02150
O         -2.44360       -0.48930        0.09960
N         -0.64420       -2.10210       -0.03880
C          0.70090       -2.01200       -0.09740
O          1.45450       -3.12680       -0.10800
N          1.13900       -0.78040       -0.13510
H          0.99590        1.71740        0.15490
H         -0.63950        1.86220        0.36850
H         -2.81440       -0.30990       -0.77360
H         -1.19450       -2.93620        0.07000
H          2.37120       -2.82680       -0.14920
