15
gdb 19616	2.93874	2.78543	1.87609	2.2818	59.23	-0.2594	0.0444	0.3037	726.6644	0.120645	-399.733334	-399.727082	-399.726137	-399.76335	25.241
O          0.12820        1.44290        0.02820
C         -0.02350        0.05920       -0.05150
C         -1.38700       -0.61320       -0.17380
C         -1.74700       -0.71580       -1.61790
C         -0.63010       -0.12760       -2.44130
O         -0.68370        1.27430       -2.66760
C          0.30270       -0.70950       -1.35430
N         -0.81830       -1.73710       -1.00190
H         -0.25950        1.80790       -0.78040
H          0.52170       -0.38050        0.78830
H         -2.11720       -0.80740        0.60330
H         -2.74290       -0.98540       -1.94810
H         -0.52190       -0.67490       -3.38460
H          0.02560        1.51770       -3.27200
H          1.30680       -1.05800       -1.58760
