16
gdb 11384	4.19215	1.50673	1.18374	4.6756	67.35	-0.2674	-0.0432	0.2242	1009.4833	0.130861	-383.797688	-383.790269	-383.789325	-383.829654	27.335
C         -0.02150        1.55820       -0.05820
C         -0.00220        0.03130        0.04230
C         -1.40670       -0.58190        0.04020
O         -2.08630       -0.26590       -1.18200
C         -2.48090       -1.41770       -1.82210
O         -3.06440       -1.40730       -2.86800
C         -2.04750       -2.56020       -0.97980
C         -1.43260       -2.08390        0.10010
H          0.99580        1.95950       -0.07130
H         -0.52870        1.87800       -0.97180
H         -0.54690        2.00440        0.79340
H          0.56130       -0.40130       -0.79230
H          0.50080       -0.28420        0.96500
H         -1.99240       -0.14820        0.86450
H         -2.23560       -3.58510       -1.26340
H         -0.99390       -2.64230        0.91730
