20
gdb 8400	3.59141	1.72959	1.47955	1.7024	74.84	-0.2311	0.0847	0.3158	952.1084	0.176203	-348.94791	-348.939823	-348.938878	-348.980186	31.311
C         -0.08770        1.52880        0.01830
C         -0.04880       -0.00680        0.02170
C          0.68830       -0.55010        1.25500
C         -1.44190       -0.57700       -0.06270
C         -2.59300       -0.26670       -1.06370
C         -3.14670       -1.11780        0.09820
C         -1.92520       -2.05540       -0.00110
O         -2.39460       -0.27110        1.05080
H          0.92420        1.94030        0.08280
H         -0.55210        1.91670       -0.89340
H         -0.66380        1.89760        0.87230
H          0.47860       -0.34690       -0.88110
H          1.69800       -0.13260        1.31570
H          0.15010       -0.28280        2.16930
H          0.77550       -1.64030        1.22260
H         -2.93150        0.76980       -1.07850
H         -2.54410       -0.71670       -2.05900
H         -4.18040       -1.35370        0.35080
H         -1.81480       -2.67030       -0.89840
H         -1.67750       -2.58920        0.91700
