19
gdb 3385	5.11263	1.85675	1.79328	0.181	70.73	-0.2471	0.09	0.3371	822.4858	0.17273	-273.757658	-273.750546	-273.749602	-273.788725	27.265
C          0.21420        1.41930        0.16670
C         -0.20450       -0.02680       -0.12520
C          0.58010       -0.63570       -1.27100
C          1.96330       -1.22760       -1.16920
C          2.15250       -2.01810        0.13370
C          0.92860       -2.91290       -0.24660
C          0.75760       -2.10620       -1.54140
H          1.27160        1.47330        0.44670
H          0.07480        2.05670       -0.71370
H         -0.37380        1.84850        0.98420
H         -0.08790       -0.62830        0.78210
H         -1.27440       -0.05690       -0.37050
H          0.46210       -0.07660       -2.19940
H          2.77300       -0.88370       -1.80260
H          3.08480       -2.58690        0.14810
H          2.08660       -1.44830        1.06650
H          1.22420       -3.94730       -0.43500
H          0.07780       -2.92100        0.44240
H          0.50210       -2.53520       -2.50370
