22
gdb 8700	2.61861	1.52512	1.26439	2.471	78.1	-0.2444	-0.0215	0.2229	1120.2177	0.197078	-350.226869	-350.216509	-350.215565	-350.262009	37.154
C         -0.00330        1.59480        0.27120
C          0.00920        0.08750       -0.00640
C          0.76890       -0.36680       -1.27400
C          2.22640        0.12670       -1.29450
C          0.71820       -1.92730       -1.31930
C          1.32300       -2.61970       -2.54730
C          0.05960        0.14080       -2.52650
O         -1.09790        0.47210       -2.58340
H          0.99850        1.98960        0.46660
H         -0.43420        2.14960       -0.56670
H         -0.61260        1.80820        1.15490
H          0.44330       -0.43790        0.85360
H         -1.02450       -0.26050       -0.09910
H          2.77740       -0.27420       -0.43740
H          2.74610       -0.19050       -2.20360
H          2.28570        1.21770       -1.25010
H          1.22700       -2.28900       -0.41670
H         -0.33160       -2.22810       -1.22230
H          0.80600       -2.34750       -3.47280
H          2.38420       -2.38630       -2.67490
H          1.24060       -3.70550       -2.43860
H          0.69790        0.17220       -3.44060
