18
gdb 13814	3.94608	1.11651	1.00386	2.2582	64.44	-0.2623	0.0638	0.3261	1204.1839	0.151281	-422.044768	-422.035432	-422.034488	-422.079642	33.052
C         -0.10100        1.37610       -0.34470
C          0.06910        0.02550        0.34870
O          0.65950        0.15000        1.63850
C         -1.26090       -0.69960        0.45850
O         -1.81520       -1.25040       -0.73920
C         -1.45760       -2.15020        0.33100
C         -0.38460       -3.15830        0.00640
O         -0.89230       -4.17740       -0.84010
H          0.86060        1.89140       -0.41460
H         -0.50780        1.24220       -1.35120
H         -0.79600        2.01570        0.21480
H          0.76870       -0.58480       -0.22850
H          0.16420        0.81600        2.12820
H         -1.99110       -0.16180        1.07270
H         -2.32450       -2.58290        0.83370
H          0.48890       -2.66640       -0.44090
H         -0.05550       -3.65570        0.92490
H         -1.22610       -3.74080       -1.63190
