13
gdb 9246	6.83371	0.77812	0.71795	2.874	69.15	-0.2832	-0.0613	0.2218	1443.3525	0.094336	-398.571469	-398.56306	-398.562116	-398.604926	29.127
O          0.10900        1.41770       -0.05420
C          0.11120        0.01750        0.04140
C         -1.34050       -0.50810        0.05400
O         -2.04010       -0.01410       -1.08850
C         -1.39230       -1.96320        0.14930
C         -1.39310       -3.17090        0.19350
C         -1.40460       -4.53530        0.24860
N         -1.41220       -5.69590        0.29300
H         -0.50620        1.63880       -0.76540
H          0.65120       -0.46090       -0.79330
H          0.61870       -0.25630        0.97100
H         -1.85420       -0.06470        0.91480
H         -1.76180       -0.52800       -1.85650
