16
gdb 7963	3.36395	1.8964	1.39234	5.3549	60.51	-0.2857	0.0438	0.3295	903.328	0.130583	-420.942375	-420.934816	-420.933871	-420.9743	27.798
C          0.06570        1.51860       -0.25070
C         -0.02100        0.03400        0.07550
O          0.50440       -0.73000       -1.02800
C          1.75620       -1.16560       -0.73040
O          2.49470       -1.68880       -1.50180
O          2.04180       -0.91520        0.57270
C          0.84900       -0.47410        1.24780
C          1.20800        0.50710        2.34600
H          1.10410        1.83740       -0.37960
H         -0.47040        1.71760       -1.18190
H         -0.38860        2.11860        0.54320
H         -1.06390       -0.26600        0.20650
H          0.37600       -1.36270        1.68570
H          1.72210        1.38430        1.94700
H          0.30460        0.83530        2.86940
H          1.86520        0.02470        3.07370
