17
gdb 10544	2.99154	1.45948	1.10594	5.5795	70.05	-0.239	0.0246	0.2636	1104.487	0.142361	-360.010719	-360.002139	-360.001194	-360.044192	30.471
C          0.08280        1.46600        0.05900
N          0.20000        0.01520        0.04320
C          0.55600       -0.52910       -1.25200
C          0.62280       -2.04600       -1.20790
C          1.54330       -2.76350       -2.13950
N          1.85220       -2.70840       -0.70880
C         -0.60920       -2.70440       -0.81620
N         -1.60180       -3.23220       -0.54900
H          0.98960        1.99910       -0.27970
H         -0.74340        1.77140       -0.59280
H         -0.15220        1.80070        1.07270
H          0.86170       -0.29260        0.74770
H         -0.21200       -0.22090       -1.97310
H          1.52400       -0.15990       -1.64840
H          1.26420       -3.74440       -2.50970
H          2.11540       -2.15140       -2.83170
H          2.55940       -1.99770       -0.53080
