18
gdb 13012	2.69687	2.49735	1.67095	1.7753	71.74	-0.242	0.0031	0.2452	851.0804	0.15332	-347.803273	-347.795644	-347.7947	-347.834633	29.613
C         -0.11510        1.52300        0.05560
C          0.00580       -0.00600       -0.02730
C          0.84360       -0.48740       -1.19890
C          1.85800       -1.26880       -0.82120
C          1.87510       -1.39460        0.66600
O          2.06570       -0.12410        1.34220
C          0.72970       -0.62360        1.18320
C         -0.02470       -0.92300        2.44900
H          0.87360        1.96740        0.19480
H         -0.55680        1.93390       -0.85760
H         -0.75010        1.82200        0.89620
H         -1.00540       -0.43400       -0.09480
H          0.63510       -0.17490       -2.21690
H          2.59210       -1.72750       -1.47210
H          2.30620       -2.25100        1.17680
H         -0.42990       -0.00320        2.88630
H         -0.86390       -1.59880        2.25320
H          0.63400       -1.38530        3.18840
