19
gdb 10736	2.44749	1.98123	1.61434	0.6887	77.25	-0.2359	0.0458	0.2817	936.9569	0.16263	-327.865186	-327.856178	-327.855234	-327.897975	34.203
C          0.37140        1.51280        0.21940
C         -0.06240        0.04990        0.00840
C          0.50380       -0.84590        1.12630
C         -1.53480       -0.02950        0.01680
C         -2.73600       -0.10160        0.00440
N          0.55280       -0.40280       -1.25890
C         -0.03630       -1.51710       -1.99150
C         -0.11420       -0.12780       -2.52570
H          1.46310        1.56930        0.20810
H         -0.01920        2.14910       -0.57900
H         -0.00040        1.89190        1.17480
H          0.13520       -0.52350        2.10350
H          0.20730       -1.88680        0.97280
H          1.59550       -0.78880        1.11470
H         -3.79670       -0.15990        0.00670
H          0.67240       -2.23200       -2.39980
H         -0.96590       -1.94330       -1.62060
H         -1.09410        0.34380       -2.50010
H          0.53630        0.19570       -3.33330
