6
gdb 323	6.73683	2.93617	2.04492	0.6341	39.71	-0.3538	-0.1562	0.1977	520.8737	0.02554	-298.95295	-298.94752	-298.946576	-298.982096	16.955
O          0.00290       -0.06520        0.00280
C         -0.01340        1.13620        0.00670
C          1.20440        1.94850        0.00060
N          2.16990        2.58430       -0.00430
C         -1.25270        1.91500        0.01790
N         -2.23510        2.52430        0.02680
