21
gdb 8441	2.65641	2.05445	1.75396	1.68	78.38	-0.2194	0.0799	0.2993	914.8985	0.187941	-329.098161	-329.089645	-329.088701	-329.130067	33.654
C         -0.11460        1.54330        0.09180
C          0.10200        0.06160        0.03310
N         -0.79240       -0.87170        0.76440
C          0.67330       -0.89950        1.01650
C          1.26260       -1.77600       -0.08720
C          0.69320       -0.75690       -1.15300
C         -0.32020       -1.31330       -2.14890
C          1.82170       -0.00560       -1.85900
H          0.75740        2.09310       -0.27630
H         -0.97760        1.84390       -0.51490
H         -0.30320        1.86930        1.12100
H         -1.21630       -0.33670        1.52310
H          1.06070       -0.72820        2.01440
H          2.35480       -1.81230       -0.09000
H          0.86140       -2.79210       -0.12800
H         -1.14090       -1.80660       -1.62360
H         -0.73970       -0.51500       -2.77330
H          0.15100       -2.04110       -2.81970
H          2.37440       -0.68010       -2.52230
H          1.43390        0.81680       -2.47110
H          2.53570        0.41560       -1.14240
