16
gdb 16055	3.52557	1.68766	1.40913	2.7401	66.98	-0.2476	-0.0264	0.2213	915.219	0.12926	-383.708554	-383.700925	-383.699981	-383.740517	27.864
C          0.02620        1.56750       -0.10000
C          0.07070        0.06120        0.02540
C          1.30740       -0.74230       -0.11690
O          2.46270       -0.07520        0.36390
C          1.91880       -0.03400        1.71670
C          0.60850       -0.66450        1.26530
C         -0.12720       -1.70170        1.98740
O          0.13080       -2.06120        3.11360
H          0.99830        2.00690        0.13330
H         -0.22680        1.85140       -1.12650
H         -0.72530        2.00160        0.56640
H         -0.80060       -0.46220       -0.36780
H          1.44910       -1.58580       -0.78420
H          2.48860       -0.68930        2.38050
H          1.88690        0.98220        2.12190
H         -0.96510       -2.15880        1.41140
