18
gdb 18758	2.90911	2.30101	1.62703	3.1954	66.62	-0.2417	0.0544	0.2961	838.9005	0.154749	-384.906432	-384.899083	-384.898138	-384.937888	29.058
O          0.48420        0.79770       -0.96870
C          0.06500       -0.22050       -0.10860
C          0.11780       -0.03600        1.44200
C         -1.28070       -0.71120        1.55740
C         -2.44650        0.28530        1.73740
C         -2.46470        0.52670        0.19690
O         -1.98290        1.79030       -0.24900
C         -1.43190       -0.61940       -0.00980
H         -0.14790        1.52000       -0.85960
H          0.63990       -1.11100       -0.38560
H          0.94500       -0.53920        1.94820
H          0.11320        1.01460        1.74680
H         -1.32360       -1.65550        2.09890
H         -3.37030       -0.18450        2.08720
H         -2.24340        1.16600        2.35600
H         -3.43700        0.31710       -0.26680
H         -2.56280        2.47850        0.09110
H         -1.77900       -1.43490       -0.64560
