18
gdb 17087	4.58488	1.61409	1.54073	0.8107	77.07	-0.253	0.0553	0.3082	894.6439	0.155865	-310.627649	-310.620896	-310.619952	-310.658295	27.614
C         -0.05120       -1.20160       -0.09770
C         -0.01300       -0.00080       -0.03410
C          0.04460        1.44980        0.04680
C         -0.45220        2.05170        1.42020
C          0.81840        2.82190        1.82370
C          1.22590        3.50230        0.48450
C          1.48650        2.03250        0.05020
C          1.93960        1.78630        1.51650
H         -0.08980       -2.26070       -0.15910
H         -0.52780        1.87210       -0.78660
H         -1.31980        2.70380        1.28730
H         -0.71690        1.26810        2.13350
H          0.78380        3.37330        2.76370
H          0.46830        4.07760       -0.05750
H          2.14890        4.08040        0.56800
H          2.11090        1.77530       -0.80500
H          2.93930        2.18000        1.71280
H          1.84150        0.77570        1.92140
