17
gdb 7174	6.84458	0.79747	0.74683	4.3776	65.49	-0.275	0.0268	0.3017	1448.4144	0.140262	-401.005008	-400.995527	-400.994583	-401.039845	32.664
O         -0.10260        1.46550        0.04540
C          0.02720        0.05280        0.03420
C         -1.37930       -0.53240       -0.02080
C         -1.38570       -2.06310       -0.00970
O         -0.73800       -2.59970        1.13090
C         -2.82850       -2.60480       -0.14360
C         -2.88520       -4.06400       -0.17340
N         -2.93510       -5.21750       -0.20880
H          0.77670        1.84750        0.11920
H          0.60340       -0.29140       -0.84030
H          0.54380       -0.31730        0.93060
H         -1.95340       -0.15310        0.83620
H         -1.88230       -0.16260       -0.92200
H         -0.80140       -2.43860       -0.85780
H         -1.18730       -2.27150        1.91880
H         -3.43590       -2.24390        0.69640
H         -3.29140       -2.21440       -1.05690
