17
gdb 19520	3.62534	1.79602	1.6575	1.2807	68.57	-0.2168	0.0096	0.2264	851.2321	0.143747	-363.828063	-363.821	-363.820056	-363.859248	27.382
O          0.35600        0.96550        1.05350
C          0.10950        0.06860       -0.02700
C         -1.27700       -0.53110        0.02380
C         -1.58440       -1.98240       -0.21260
C         -0.46770       -2.96170       -0.10510
C          0.03420       -2.95270        1.13070
C         -0.71560       -1.96720        1.99890
N         -1.76230       -1.37380        1.12870
H         -0.35830        1.61100        1.07100
H          0.23620        0.57530       -0.99700
H          0.88220       -0.69790        0.04620
H         -2.05140        0.17030       -0.29360
H         -2.47980       -2.25080       -0.76930
H         -0.13620       -3.57770       -0.93170
H          0.87360       -3.53970        1.48560
H         -1.20290       -2.46100        2.84990
H         -0.07310       -1.17790        2.40560
