18
gdb 19188	3.42079	1.92703	1.71481	3.0395	71.04	-0.2294	-0.0018	0.2276	850.6981	0.155665	-347.813689	-347.80668	-347.805736	-347.84457	27.679
C         -0.15500        1.60900       -0.01080
C          0.02500        0.09760        0.01860
C          1.16320       -0.59890       -0.81710
C          2.44940        0.05420       -0.26090
C          2.11690        0.04440        1.27520
C          0.71750       -0.61200        1.24180
C          0.97090       -1.72870        0.21180
O          0.89730       -2.92120        0.18830
H          0.77000        2.15340        0.19320
H         -0.51960        1.93160       -0.99160
H         -0.89390        1.92070        0.73490
H         -0.93250       -0.38970       -0.19170
H          1.08580       -0.76530       -1.88990
H          3.33950       -0.53310       -0.50030
H          2.60310        1.06280       -0.65210
H          2.82980       -0.54810        1.85410
H          2.09240        1.04780        1.70720
H          0.20380       -0.79120        2.18440
