15
gdb 14580	14.2027	0.63067	0.61182	0.9415	67.38	-0.2703	0.0068	0.2771	1665.1872	0.118981	-358.855809	-358.847121	-358.846176	-358.890181	29.015
N         -0.05610       -1.15700       -0.03360
C         -0.04230       -0.00210       -0.01030
C          0.00330        1.45710        0.01830
C          1.44280        1.99190       -0.07360
N          1.42250        3.44760       -0.01540
C          2.76150        4.02790        0.02380
C          2.69590        5.49150        0.03280
N          2.64420        6.64490        0.01580
H         -0.59680        1.84100       -0.81570
H         -0.46200        1.82070        0.93980
H          2.01720        1.62180        0.78300
H          1.92850        1.59060       -0.97950
H          0.91860        3.82340       -0.81330
H          3.26200        3.69770        0.94240
H          3.41180        3.72100       -0.81520
