14
gdb 384	5.49762	2.51451	1.86401	1.4722	50.03	-0.2523	-0.0219	0.2304	656.247	0.117353	-307.574899	-307.567493	-307.566549	-307.606203	24.974
C          0.19980        1.65040       -0.05620
C         -0.07920        0.13750        0.01250
C          0.53710       -0.63350       -1.15050
O         -0.04820       -0.14150       -2.34800
C          0.36820       -0.41490        1.34780
O          1.12190       -1.34390        1.49770
H          1.27550        1.85120       -0.00650
H         -0.17880        2.05000       -0.99830
H         -0.28370        2.18290        0.76880
H         -1.17160        0.00080       -0.02460
H          1.62850       -0.49190       -1.14490
H          0.34990       -1.70800       -1.01860
H          0.35050       -0.60700       -3.08860
H         -0.05770        0.12200        2.22770
