14
gdb 9585	4.28362	1.34788	1.25768	2.0877	68.34	-0.2435	-0.0428	0.2006	974.5579	0.104022	-382.499569	-382.491544	-382.4906	-382.531861	29.604
O          0.05880        1.39360        0.09920
C          0.02690        0.01940        0.07030
C         -0.44930       -0.70450        1.29450
C         -1.35520       -0.71740        0.08380
C         -2.54370        0.07230        0.03720
C         -3.55010        0.72780       -0.01860
C          1.03260       -0.59470       -0.82280
O          1.75050        0.08040       -1.52540
H          0.62010        1.65070       -0.64960
H          0.03320       -1.63360        1.57910
H         -0.73770       -0.05750        2.11420
H         -1.39260       -1.64930       -0.47400
H         -4.43590        1.31140       -0.06350
H          1.06910       -1.70340       -0.83140
