16
gdb 9249	5.78466	0.765	0.71287	3.0423	73.64	-0.2702	-0.0655	0.2047	1552.0246	0.127307	-383.716046	-383.706479	-383.705535	-383.751583	32.028
C          0.07670        1.48750        0.23180
C          0.05460       -0.03010        0.04450
C          0.65180       -0.45610       -1.31490
O          1.98620        0.00320       -1.49150
C          0.55130       -1.90660       -1.49190
C          0.51580       -3.11100       -1.59050
C          0.43270       -4.54200       -1.72900
O          1.36170       -5.30000       -1.56910
H          1.09390        1.87370        0.13250
H         -0.54600        1.98680       -0.51850
H         -0.30400        1.76160        1.21960
H          0.62460       -0.52520        0.84070
H         -0.96930       -0.41540        0.10870
H          0.08150        0.03620       -2.11340
H          2.55660       -0.52030       -0.91670
H         -0.57700       -4.91180       -2.00050
