17
gdb 6517	2.95116	1.83588	1.40859	5.424	69.69	-0.2743	0.0377	0.312	936.8576	0.139679	-363.868539	-363.859596	-363.858651	-363.901298	32.925
C         -0.07070        1.55370       -0.04940
C          0.00950        0.04420       -0.00120
O         -1.16270       -0.59100       -0.42620
C          1.30290       -0.68310       -0.24740
C          0.69060       -0.67570        1.15880
C          1.38390        0.08150        2.28300
C          0.07940       -1.90890        1.59460
N         -0.37520       -2.89270        1.99850
H          0.84870        2.03490        0.28970
H         -0.24870        1.87780       -1.08160
H         -0.90350        1.91050        0.56340
H         -1.22050       -0.50680       -1.38450
H          1.25370       -1.61300       -0.80140
H          2.21510       -0.11000       -0.37760
H          1.89670        0.96820        1.90520
H          0.66660        0.39720        3.04630
H          2.12960       -0.55810        2.76370
