18
gdb 5826	2.82552	1.67775	1.38525	1.8108	69.41	-0.2614	0.0333	0.2946	979.6524	0.148805	-384.903731	-384.893698	-384.892754	-384.937621	36.828
C         -0.02190        1.55510        0.02430
C          0.00600        0.02360        0.07510
C          0.68970       -0.47860        1.35110
O         -1.31630       -0.50330       -0.03280
C          0.71950       -0.51250       -1.20160
O          2.03790        0.01900       -1.31830
C          0.72890       -1.97370       -1.27400
C          0.81500       -3.17150       -1.33090
H          0.98990        1.96290       -0.02710
H         -0.58150        1.89330       -0.85300
H         -0.51210        1.95630        0.91860
H          0.16910       -0.09670        2.23630
H          0.67850       -1.57060        1.38670
H          1.72550       -0.12910        1.40420
H         -1.82530       -0.17950        0.71750
H          0.15620       -0.12090       -2.05730
H          2.64030       -0.60440       -0.89990
H          0.86610       -4.23070       -1.39030
