14
gdb 5508	3.71792	2.01351	1.31703	3.8688	74.35	-0.2167	-0.0138	0.2029	881.1756	0.107777	-341.590874	-341.583455	-341.58251	-341.622809	26.884
C          0.00200        1.44310        0.03300
N          0.01490       -0.00740       -0.00010
C          0.03630       -0.79470       -1.12160
C          0.04660       -2.09320       -0.67210
N          0.03200       -2.13160        0.69200
C          0.01280       -0.86380        1.07930
C         -0.00760       -0.40020        2.41480
C         -0.02490        0.01080        3.54680
H          0.90620        1.84850       -0.43100
H         -0.87380        1.83210       -0.49460
H         -0.03780        1.76660        1.07340
H          0.04210       -0.36580       -2.11040
H          0.06320       -2.99800       -1.26050
H         -0.03980        0.35480        4.55120
