14
gdb 641	7.74808	3.11668	2.80799	1.6374	53.44	-0.224	0.0811	0.3051	524.6466	0.119866	-270.394284	-270.388609	-270.387665	-270.423475	20.986
C          0.12110        1.56800        0.06670
C          1.31530        0.63190       -0.09310
C         -0.06560        0.08790        0.05830
C         -0.65310       -0.84190        1.11510
C         -1.34110       -1.51350       -0.09320
O         -0.73270       -0.58000       -1.01530
H         -0.00020        2.10400        1.00280
H         -0.20600        2.10990       -0.81430
H          1.76510        0.56490       -1.07800
H          2.01080        0.52760        0.73380
H          0.07020       -1.46300        1.64740
H         -1.32520       -0.36920        1.83400
H         -1.03660       -2.54550       -0.30160
H         -2.43490       -1.44950       -0.11460
