17
gdb 6303	3.70747	1.18043	1.02412	3.163	72.23	-0.245	0.0258	0.2707	1187.7433	0.139031	-363.868168	-363.858398	-363.857454	-363.904409	33.706
C         -0.07600        1.65560        0.09400
C          0.05850        0.12450       -0.00670
N          0.69340       -0.28680       -1.25870
C         -0.04470       -0.61590       -2.35970
C          0.75750       -1.09710       -3.55820
O         -1.26100       -0.54220       -2.37380
C          0.79360       -0.43200        1.12870
C          1.42240       -0.86150        2.05840
H          0.90810        2.13250        0.08150
H         -0.66260        2.02070       -0.75230
H         -0.58250        1.93210        1.02270
H         -0.94950       -0.30410       -0.03950
H          1.69510       -0.38300       -1.27070
H          0.60910       -2.17540       -3.67140
H          0.36760       -0.61530       -4.45700
H          1.82910       -0.89830       -3.47580
H          1.95930       -1.25380        2.88660
