17
gdb 20554	4.44112	1.59043	1.31161	3.4588	68.95	-0.2589	0.0127	0.2716	959.2351	0.144131	-360.077424	-360.069816	-360.068872	-360.109877	27.759
C         -0.03290        1.57690        0.46850
C         -0.07410        0.12130        0.00550
C          0.84890       -0.78370        0.82870
N         -1.44460       -0.40120        0.02860
C         -2.55260        0.03280        0.66530
N         -3.57110       -0.77990        0.43910
C         -3.01400       -1.72530       -0.36270
N         -1.73270       -1.54520       -0.64070
H          0.98270        1.96200        0.34780
H         -0.70790        2.20620       -0.11820
H         -0.29630        1.67110        1.52700
H          0.23250        0.07210       -1.04430
H          0.57780       -0.75150        1.88910
H          0.77340       -1.81600        0.48120
H          1.88700       -0.45350        0.72740
H         -2.57980        0.92800        1.26540
H         -3.56550       -2.56570       -0.75760
