14
gdb 20919	5.39954	1.41975	1.20848	1.7062	59.93	-0.2566	-0.0211	0.2355	975.378	0.108539	-412.034342	-412.027109	-412.026164	-412.066455	25.742
C          0.06440        1.50970        0.04400
C         -0.02310       -0.01010       -0.07850
N          0.71310       -0.51240       -1.23060
N          0.12040       -1.05470       -2.27610
N          1.07800       -1.36700       -3.12310
C          2.22570       -0.98280       -2.52420
O          3.43410       -1.13210       -3.06810
N          2.04410       -0.43810       -1.32920
H          1.10430        1.82770        0.14770
H         -0.36500        1.99620       -0.83600
H         -0.49040        1.83810        0.92730
H          0.38400       -0.49900        0.81100
H         -1.05090       -0.34730       -0.22360
H          3.30750       -1.55140       -3.92870
