15
gdb 1739	5.42957	1.77932	1.65435	1.0868	62.44	-0.2514	0.0428	0.2942	792.8597	0.122983	-308.46788	-308.460426	-308.459482	-308.499135	28.096
O         -0.19070        1.39870       -0.14260
C         -0.02250        0.01410       -0.04040
C          1.10410       -0.53210       -0.91340
C          2.38510        0.08130       -0.57150
C          3.40640        0.63550       -0.26100
C         -0.32880       -0.64150        1.28200
C         -1.28960       -0.76260        0.11000
H          0.63910        1.80560        0.13760
H          1.16660       -1.62090       -0.80400
H          0.87010       -0.32770       -1.96590
H          4.32530        1.09960       -0.00040
H          0.23890       -1.51630        1.58110
H         -0.62050        0.01530        2.09330
H         -2.20530       -0.18460        0.15350
H         -1.37770       -1.71960       -0.39320
