16
gdb 17873	3.35269	2.0909	1.97391	2.0687	64.16	-0.239	-0.0152	0.2238	764.4206	0.132719	-383.741301	-383.734968	-383.734024	-383.771648	24.845
O          0.00020        0.03680       -0.03590
C         -0.01520        1.23360       -0.00320
C         -1.09950        2.31120        0.08640
C         -0.02930        3.16250        0.84140
C          1.04220        2.33960        0.05730
C          1.14010        2.92880       -1.37700
O         -0.06990        3.56970       -1.74510
C         -1.25200        2.89710       -1.34450
H         -2.06520        2.07470        0.53560
H         -0.04600        4.23740        0.65860
H         -0.01200        2.95200        1.91170
H          2.02570        2.12890        0.48000
H          1.91340        3.70210       -1.42210
H          1.40790        2.13310       -2.08960
H         -1.51790        2.09440       -2.04980
H         -2.04650        3.64960       -1.36830
