15
gdb 19037	4.16998	2.21647	1.87946	2.6286	64.08	-0.2209	-0.0154	0.2055	728.6238	0.121152	-362.635721	-362.629976	-362.629032	-362.665449	23.298
O          0.00360       -0.00660       -0.10220
C         -0.02140        1.19240        0.01230
C         -1.26690        2.10290        0.06350
N         -0.77350        3.42740        0.47290
C         -0.15190        3.31790        1.85000
C          1.21650        3.16960        1.21160
C          0.60900        3.53290       -0.10430
C          1.14640        2.13340        0.06770
H         -1.70600        2.16380       -0.94010
H         -2.03140        1.72170        0.74490
H         -0.26950        4.26380        2.38620
H         -0.53550        2.49910        2.46890
H          2.17880        3.44810        1.62360
H          0.87200        4.24010       -0.87990
H          2.09510        1.82820       -0.35490
