14
gdb 9592	3.82248	1.29738	1.20315	2.4071	64.68	-0.2705	-0.0565	0.214	1010.9012	0.105613	-378.715834	-378.707746	-378.706801	-378.748573	28.377
C         -0.19000        1.55920        0.04950
C          0.02980        0.05840        0.00650
N          1.33090       -0.42090       -0.46580
C          0.97860       -0.67780        0.93630
C          1.77810        0.05530        1.96750
O          1.83830       -0.29490        3.11700
C         -1.13770       -0.70990       -0.37920
N         -2.06710       -1.31340       -0.71080
H          0.74840        2.07260        0.26210
H         -0.55990        1.90910       -0.91810
H         -0.92540        1.82140        0.81490
H          1.24230       -1.26700       -1.02280
H          0.67170       -1.67480        1.24110
H          2.32630        0.94210        1.58580
