12
gdb 972	3.67496	3.54982	1.82623	0.4735	52.43	-0.2113	0.0055	0.2168	648.8899	0.09071	-360.551444	-360.545112	-360.544168	-360.581576	22.645
C          0.14330        1.52910        0.07530
C         -0.03380        0.05930        0.03190
C         -1.08290       -0.77760       -0.18090
O         -2.36590       -0.44320       -0.43120
N         -0.67660       -2.09530       -0.10990
C          0.59250       -2.01180        0.14110
O          1.06320       -0.75860        0.24250
H          0.85080        1.87980       -0.68520
H         -0.82120        2.00700       -0.11150
H          0.50970        1.87020        1.05060
H         -2.85240       -1.26960       -0.53400
H          1.29810       -2.81630        0.27480
