15
gdb 7335	5.01569	1.07291	1.02823	12.9178	61.67	-0.1976	-0.0208	0.1768	1155.6876	0.117031	-436.91929	-436.910797	-436.909853	-436.953531	28.7
C         -0.38450        1.34230        0.06280
N          0.52220        0.17200        0.11410
H          0.08270       -0.73690       -0.33060
H          1.39610        0.36820       -0.36990
C          0.79990       -0.43170        1.45670
C          0.51070       -1.94190        1.23750
O         -0.05380       -2.19540        0.16750
C          1.20300       -2.91260        2.20460
O          0.64530       -3.61960        3.02080
O          2.39200       -2.70120        1.84220
H          0.04830        2.17860        0.61400
H         -0.54640        1.62660       -0.97860
H         -1.33680        1.05830        0.51270
H          1.82730       -0.27000        1.77010
H          0.10510       -0.00760        2.18600
