22
gdb 7199	2.70691	1.04462	0.79936	1.7884	75.69	-0.2458	0.0814	0.3272	1483.9115	0.197478	-387.337184	-387.326549	-387.325605	-387.373649	37.048
C         -0.07060        1.50630       -0.07930
C         -0.02180        0.00540        0.15770
O         -1.31260       -0.52230       -0.07500
C         -1.41690       -1.94160       -0.00620
C         -1.44670       -2.43980        1.44160
C         -2.68510       -2.32450       -0.77110
C         -2.63080       -1.95800       -2.25510
O         -3.80220       -2.34860       -2.95810
H          0.91430        1.95200        0.08930
H         -0.38030        1.72360       -1.10560
H         -0.78580        1.97810        0.60050
H          0.70790       -0.46910       -0.52010
H          0.31280       -0.20220        1.18620
H         -0.54500       -2.38670       -0.51780
H         -1.52560       -3.53110        1.47000
H         -0.53890       -2.15900        1.98300
H         -2.30630       -2.01590        1.97060
H         -2.85920       -3.40190       -0.67520
H         -3.53770       -1.81590       -0.29990
H         -2.43240       -0.88330       -2.36150
H         -1.80590       -2.49230       -2.74070
H         -4.53410       -1.82520       -2.61670
