14
gdb 12300	3.07842	2.36972	1.40514	6.0435	60.77	-0.2566	-0.0361	0.2205	834.475	0.109399	-415.893922	-415.887044	-415.8861	-415.925376	25.366
N         -0.03220        1.23640        0.35830
C         -0.00030        0.02640        0.00190
O          1.17610       -0.61210       -0.28710
C          1.10850       -1.88700       -0.92820
C          0.13880       -2.79760       -0.19980
N         -1.14700       -2.12790       -0.15780
C         -1.30510       -0.77310       -0.04300
O         -2.38820       -0.24020        0.03180
H          0.91460        1.62400        0.35430
H          0.79760       -1.76180       -1.97350
H          2.12460       -2.28610       -0.90610
H          0.04030       -3.74290       -0.74270
H          0.51870       -3.02490        0.80670
H         -1.99970       -2.66260       -0.08340
