22
gdb 6499	3.47299	1.22638	1.17732	1.7324	78.15	-0.2588	0.0812	0.3401	1182.9021	0.197856	-350.200285	-350.190619	-350.189675	-350.2345	35.873
C          0.25220        1.62780        0.03920
C          0.04490        0.10880       -0.04190
C          0.73050       -0.46920       -1.28770
C          0.54940       -0.61730        1.22190
C         -0.14220       -0.24700        2.52400
C         -1.64060       -0.45440        2.59890
C          0.64010       -0.26990        3.77050
O          0.31850        0.97080        3.13930
H          1.31780        1.86800        0.13250
H         -0.12240        2.11830       -0.86570
H         -0.25450        2.06560        0.90220
H         -1.03220       -0.08460       -0.14010
H          1.81540       -0.31600       -1.24270
H          0.55030       -1.54530       -1.38450
H          0.36580        0.01590       -2.19910
H          0.43930       -1.70090        1.07640
H          1.62300       -0.42330        1.33730
H         -1.89940       -1.49880        2.39280
H         -2.01430       -0.19250        3.59170
H         -2.16310        0.17000        1.86760
H          0.13880       -0.45530        4.72020
H          1.69330       -0.54890        3.74490
