16
gdb 7056	2.76816	1.15493	0.85066	4.3859	71.23	-0.2652	0.0048	0.2699	1333.6483	0.126942	-383.741241	-383.731539	-383.730595	-383.778063	31.746
C          0.27930        1.18190       -0.08630
C          0.08590       -0.25940       -0.03780
C         -0.07160       -1.45250       -0.00280
C         -0.26300       -2.89950        0.03730
C         -1.73120       -3.30520        0.14630
O          0.24130       -3.52220       -1.17410
C          1.57640       -3.66630       -1.27250
O          2.10290       -4.13980       -2.23430
H          0.97770        1.51630        0.68820
H          0.68510        1.48800       -1.05650
H         -0.66640        1.71390        0.06170
H          0.29160       -3.31730        0.88910
H         -2.16460       -2.88940        1.05900
H         -2.28950       -2.92640       -0.71250
H         -1.81450       -4.39450        0.17200
H          2.11930       -3.31270       -0.37490
