9
gdb 3640	10.20863	2.07599	1.72517	1.6863	53.73	-0.2809	-0.0666	0.2143	645.709	0.055518	-338.195462	-338.190085	-338.189141	-338.224631	19.038
C          0.06560       -1.16430       -0.00470
C         -0.01260        0.03460        0.00300
C         -0.09080        1.44300        0.01180
N         -1.15520        2.19850        0.02970
C         -0.60420        3.45160        0.02940
N          0.70180        3.48890        0.01260
O          1.06010        2.14420        0.00050
H          0.12840       -2.22540       -0.01140
H         -1.19090        4.35850        0.04200
