16
gdb 8093	2.91437	1.98642	1.50453	3.2171	66.01	-0.2369	-0.0059	0.2311	881.3504	0.129078	-383.731839	-383.724117	-383.723173	-383.763584	29.243
C         -0.01350        1.53550        0.05290
C          0.00830        0.03560        0.00900
C         -1.25440       -0.84550       -0.08240
C         -0.62660       -1.75430        0.99770
O         -1.06850       -2.64000        1.67490
C          0.64930       -0.97430        1.04910
C          1.18540       -0.77320       -0.36440
O          1.08180       -1.74280       -1.36290
H          0.97500        1.94340        0.28580
H         -0.32310        1.94540       -0.91560
H         -0.71770        1.90020        0.80820
H         -2.15150       -0.35700        0.30970
H         -1.46820       -1.29490       -1.05350
H          1.27550       -0.81170        1.91920
H          2.12930       -0.22410       -0.36820
H          1.63880       -2.49000       -1.11960
