19
gdb 14099	3.29632	1.58674	1.39681	2.0237	71.73	-0.241	0.0682	0.3092	995.4525	0.164518	-365.023229	-365.014799	-365.013855	-365.056014	31.192
C         -0.04460        1.53850       -0.11660
C          0.05120        0.03530       -0.02450
N          1.41120       -0.54840       -0.09890
C          0.65000       -0.65630        1.13650
C          1.09660       -0.13680        2.49670
O          0.53300       -1.30390        3.13920
C          0.18190       -1.91630        1.87230
C         -1.27660       -2.32360        1.80580
H          0.78820        2.01020        0.41190
H         -0.00900        1.86800       -1.16020
H         -0.98240        1.89870        0.32050
H         -0.74140       -0.50730       -0.53950
H          1.39890       -1.43280       -0.60290
H          2.18470       -0.07420        2.62380
H          0.63310        0.79130        2.85250
H          0.83020       -2.78520        1.67510
H         -1.92950       -1.46290        1.97620
H         -1.51340       -2.75770        0.82780
H         -1.49170       -3.07810        2.56900
