22
gdb 14802	12.07992	0.47933	0.46907	0.0001	76.04	-0.2617	0.0805	0.3422	2286.101	0.198546	-387.334843	-387.324158	-387.323214	-387.371478	36.59
O         -0.04870        1.46260        0.01020
C          0.03760        0.04480        0.00180
C         -1.37840       -0.51470        0.01230
C         -1.41800       -2.04540        0.00460
C         -2.84250       -2.61120        0.01510
C         -2.88210       -4.14190        0.00740
C         -4.29810       -4.70130        0.01790
O         -4.21180       -6.11910        0.00960
H          0.84470        1.81790        0.00330
H          0.57330       -0.31620       -0.89200
H          0.59020       -0.32570        0.88130
H         -1.89730       -0.12760        0.89810
H         -1.91410       -0.11830       -0.85920
H         -0.88640       -2.42310       -0.87980
H         -0.86980       -2.43240        0.87470
H         -3.37410       -2.23350        0.89960
H         -3.39070       -2.22420       -0.85500
H         -2.36320       -4.52890       -0.87840
H         -2.34640       -4.53820        0.87900
H         -4.83380       -4.34030        0.91170
H         -4.85070       -4.33090       -0.86160
H         -5.10520       -6.47440        0.01640
