19
gdb 15227	2.37854	1.82373	1.30098	1.1554	78.06	-0.221	0.0354	0.2564	1039.7119	0.163148	-327.864378	-327.855119	-327.854175	-327.898164	33.753
C          0.35790       -0.21080       -1.84440
C          0.13480       -0.45960       -0.34770
C         -1.30100       -0.84920       -0.06010
C         -1.74780       -2.29150       -0.02640
C         -0.79430       -3.35210       -0.20000
C         -0.02370       -4.26570       -0.34400
N         -1.75820       -1.44700        1.18530
C         -0.81510       -1.72680        2.26090
H          1.38340        0.11660       -2.03950
H          0.17880       -1.12340       -2.42120
H         -0.31760        0.56410       -2.22330
H          0.82070       -1.23770       -0.00360
H          0.37380        0.45010        0.21830
H         -2.02620       -0.14630       -0.47390
H         -2.74430       -2.53060       -0.39300
H          0.65470       -5.07200       -0.47560
H          0.14270       -2.15690        1.94190
H         -0.62040       -0.79540        2.80150
H         -1.28410       -2.42990        2.95590
