5
gdb 184	5.71326	5.71279	5.71267	0.0003	15.93	-0.4286	0.1935	0.6221	279.3208	0.017147	-437.484875	-437.480956	-437.480011	-437.512059	12.639
F          0.00110        0.07350        0.00250
C         -0.01690        1.39480        0.00970
F          1.22280        1.85220        0.00030
F         -0.65600        1.83250       -1.06090
F         -0.63540        1.82090        1.09690
