17
gdb 13837	4.45518	1.39589	1.30331	3.3735	69.54	-0.2357	0.0267	0.2625	984.5313	0.14333	-363.912469	-363.904431	-363.903486	-363.946277	29.053
N         -0.21680        1.30130        0.69130
C          0.04440        0.19570       -0.06550
O          1.15430       -0.03950       -0.50650
C         -1.15260       -0.70980       -0.33720
C         -1.62930       -0.60310       -1.81990
C         -1.99310       -2.02610       -2.16940
C         -1.55960       -2.89280       -1.25770
C         -0.82230       -2.21340       -0.12960
H          0.52870        1.96000        0.84760
H         -1.13810        1.52300        1.02330
H         -1.98900       -0.43730        0.31530
H         -2.46260        0.09930       -1.93400
H         -0.81740       -0.24150       -2.46470
H         -2.50440       -2.28310       -3.09050
H         -1.66440       -3.97050       -1.31600
H          0.25970       -2.37420       -0.21500
H         -1.12490       -2.56770        0.86210
