18
gdb 9889	4.94737	1.0497	0.98582	4.0326	69.93	-0.2737	0.01	0.2837	1214.2721	0.152136	-384.953338	-384.944634	-384.94369	-384.987424	31.03
C         -0.24180        1.44440        0.05700
C         -0.05180       -0.05750       -0.02040
C         -1.25380       -0.83000       -0.50520
O         -1.55770       -0.48670       -1.86890
C         -2.78950       -0.03250       -2.15820
O         -3.13020        0.25930       -3.26490
C          1.30820       -0.60220       -0.38430
C          0.79620       -0.74220        1.02780
H          0.66400        1.93510        0.42420
H         -0.47140        1.86310       -0.92810
H         -1.06110        1.70780        0.73710
H         -1.06000       -1.90730       -0.48090
H         -2.13060       -0.62630        0.12550
H         -3.44160        0.03930       -1.26470
H          1.35600       -1.49190       -1.00280
H          2.10250        0.11130       -0.57350
H          1.23550       -0.12010        1.79990
H          0.50310       -1.72910        1.37120
