22
gdb 13932	3.17628	1.72379	1.42704	0.1045	81.79	-0.2644	0.0865	0.3509	1006.6512	0.201057	-313.056163	-313.048012	-313.047067	-313.088395	31.968
C         -0.53260        1.29680       -0.29540
C          0.19490       -0.03700       -0.23630
C          1.69910       -0.10290       -0.62060
C          1.90130       -1.14510        0.50990
C          0.56060       -0.66990        1.13630
C          0.68870        0.18970        2.42820
C          0.22490       -1.04540        3.24650
C         -0.32600       -1.65760        1.93050
H          0.00890        2.07170        0.25830
H         -0.63490        1.64140       -1.33060
H         -1.54110        1.22630        0.12900
H         -0.35980       -0.78330       -0.82040
H          1.95470       -0.39840       -1.64130
H          2.20680        0.84100       -0.39600
H          1.82760       -2.17120        0.13470
H          2.80290       -1.06360        1.12410
H          1.66990        0.61660        2.65600
H         -0.05400        0.99300        2.46120
H          1.07070       -1.61720        3.63800
H         -0.48210       -0.87310        4.06130
H         -1.39160       -1.44050        1.79620
H         -0.16590       -2.72550        1.75310
