19
gdb 16251	2.83466	2.14454	1.47872	1.551	70.43	-0.2355	0.0639	0.2994	904.9348	0.167494	-365.046519	-365.038946	-365.038002	-365.078876	29.575
O          0.19320        1.34480       -0.26940
C          0.04680       -0.05080       -0.03460
C          0.66960       -0.53490        1.30140
C         -0.52170       -0.83260        2.23180
C         -1.57020       -1.41070        1.26780
C         -1.42250       -0.52910        0.03400
C         -2.51530        0.35980       -0.44600
N         -2.17740       -0.87710       -1.17420
H         -0.26520        1.81000        0.43920
H          0.55600       -0.51210       -0.88760
H          1.23470       -1.45740        1.12680
H          1.37240        0.20680        1.68960
H         -0.26650       -1.50780        3.05250
H         -0.89860        0.09480        2.68200
H         -1.31760       -2.44720        1.01090
H         -2.58810       -1.41240        1.66610
H         -3.47970        0.34580        0.05600
H         -2.23680        1.31010       -0.89120
H         -1.63110       -0.63750       -1.99950
