18
gdb 15345	6.42535	0.92832	0.87315	4.9243	73.48	-0.2492	0.0265	0.2756	1326.8847	0.153136	-343.965789	-343.957031	-343.956087	-343.999846	30.972
C         -1.46490        0.56090        0.57500
C         -0.09480        0.15330        0.01840
C          0.82190       -0.34670        1.11790
C          0.91480       -1.79540        1.46160
N          2.06130       -1.09690        0.88140
C          2.43600       -1.43550       -0.48510
C          3.41440       -2.53020       -0.48690
N          4.17290       -3.40080       -0.50650
H         -1.36530        1.34490        1.33300
H         -2.11230        0.94440       -0.21870
H         -1.96910       -0.29110        1.04190
H         -0.23320       -0.61340       -0.75130
H          0.36890        1.01630       -0.47720
H          0.93820        0.36590        1.93450
H          1.03680       -2.13010        2.48750
H          0.36670       -2.48690        0.82190
H          1.59830       -1.74170       -1.13190
H          2.89980       -0.55910       -0.95280
