20
gdb 9552	2.7411	1.64843	1.51978	2.2033	70.83	-0.2415	0.0651	0.3066	991.8201	0.174805	-386.127771	-386.118418	-386.117474	-386.161571	34.121
C          0.12840        1.50000        0.17600
C         -0.21320        0.04350       -0.15600
C          0.61690       -0.52400       -1.31240
C          0.35520        0.15930       -2.64620
O          2.04530       -0.48750       -0.98950
C          2.09770       -1.91270       -0.79920
C          0.66870       -2.07800       -1.35620
O         -0.29460       -2.72230       -0.55860
H          1.20380        1.60710        0.34350
H         -0.16050        2.18670       -0.62570
H         -0.39260        1.81890        1.08360
H         -0.04650       -0.58130        0.72630
H         -1.27660       -0.05970       -0.40270
H          0.59530        1.22470       -2.59610
H          0.97290       -0.28620       -3.43130
H         -0.69820        0.05690       -2.92910
H          2.91870       -2.37400       -1.36090
H          2.17540       -2.19430        0.25980
H          0.65210       -2.45960       -2.38500
H         -0.23720       -3.66960       -0.71400
