16
gdb 10089	2.67308	1.52795	1.32029	3.786	58.07	-0.2653	0.0031	0.2684	990.1709	0.129176	-458.019041	-458.010362	-458.009417	-458.052907	30.389
O          0.26470        1.03740       -0.40250
C          0.06900       -0.28500        0.05600
C         -1.39130       -0.71410        0.24480
C         -2.17000        0.19730        1.19860
O         -2.24110        1.54310        0.73140
O         -2.18220       -0.87240       -0.95290
C         -1.88460       -0.24730       -2.12030
O         -2.58550       -0.38330       -3.08000
H         -0.39680        1.59400        0.03510
H          0.55720       -0.95330       -0.66260
H          0.56270       -0.44620        1.02900
H         -1.36810       -1.71730        0.68870
H         -3.17360       -0.21510        1.35740
H         -1.65880        0.23490        2.16590
H         -2.86140        1.56910       -0.00580
H         -0.97990        0.37580       -2.07600
