11
gdb 439	8.19502	3.72327	2.60109	3.246	47.64	-0.2165	-0.0013	0.2152	473.5305	0.08615	-285.335887	-285.330807	-285.329863	-285.364182	18.76
O          0.01010       -0.01120        0.00300
C         -0.03070        1.19650        0.01050
C         -1.26010        2.12360        0.03200
C         -0.66540        3.50870        0.03150
C          0.66640        3.39480        0.01290
N          1.06130        2.04970        0.00030
H         -1.89080        1.91060       -0.83900
H         -1.86700        1.90110        0.91740
H         -1.22530        4.43070        0.04400
H          1.42200        4.16760        0.00680
H          2.00950        1.71360       -0.01450
