16
gdb 17736	6.20537	1.6648	1.59648	1.8417	68.44	-0.2311	0.0873	0.3184	828.0145	0.130523	-346.482096	-346.476052	-346.475108	-346.511981	24.866
C          0.01960        1.56760        0.00830
C          1.34450        0.81250       -0.00790
C          0.04710        0.07610        0.00240
C         -0.52890       -0.95530        0.96980
C         -1.73360       -1.25220        0.01530
O         -1.53270       -2.69570        0.00780
C         -0.18840       -2.13300       -0.00370
C         -0.54840       -0.94790       -0.96100
H         -0.25870        2.08050        0.92380
H         -0.27710        2.08740       -0.89740
H          1.92600        0.83160       -0.92450
H          1.94440        0.82470        0.89680
H         -0.53090       -0.98220        2.05930
H         -2.74950       -0.85870        0.02710
H          0.66790       -2.80660       -0.01490
H         -0.57240       -0.96660       -2.05050
