20
gdb 9689	3.4268	1.28172	1.10972	1.0211	72.14	-0.2439	0.0809	0.3248	1157.9907	0.17438	-386.110654	-386.100945	-386.100001	-386.1451	34.814
C          0.08590        1.22510       -0.35270
O         -0.08700       -0.00230        0.32720
C         -1.35580       -0.58610        0.17460
C         -2.46230        0.10330        0.94470
C         -1.65390       -1.25500       -1.14650
C         -1.34860       -2.08840        0.08530
C         -0.06410       -2.86960        0.15630
O         -0.23410       -4.06390       -0.60190
H          1.13380        1.50950       -0.22930
H         -0.13610        1.13020       -1.42500
H         -0.54330        2.02480        0.06230
H         -2.64490        1.11730        0.57280
H         -3.39890       -0.45350        0.85370
H         -2.20270        0.17090        2.00640
H         -2.66780       -1.23660       -1.53130
H         -0.88080       -1.21910       -1.90700
H         -2.19420       -2.59090        0.54710
H          0.76010       -2.25690       -0.23120
H          0.16780       -3.10280        1.20790
H          0.57370       -4.57970       -0.52080
