20
gdb 12275	2.80996	1.56041	1.33339	0.7125	70.91	-0.249	0.0727	0.3217	1031.7718	0.176122	-386.120933	-386.111869	-386.110925	-386.154197	33.713
C         -0.64690        1.33390       -0.16840
C         -0.03610       -0.05670       -0.06230
C          1.30280       -0.35860       -0.79100
O          2.06680        0.83380       -0.90330
C          1.71460       -1.25030        0.41210
C          0.60540       -0.57430        1.26880
C          1.13340        0.49720        2.20820
O          1.84770       -0.16710        3.24650
H          0.07710        2.11370        0.07670
H         -0.99860        1.52300       -1.18840
H         -1.50690        1.43530        0.50250
H         -0.76990       -0.79970       -0.39380
H          1.22200       -0.85320       -1.76910
H          2.96970        0.58350       -1.12400
H          1.52100       -2.31060        0.22860
H          2.74050       -1.13540        0.77220
H         -0.01890       -1.26040        1.84860
H          1.78590        1.18770        1.65620
H          0.29470        1.08210        2.61920
H          2.24100        0.50340        3.81230
