16
gdb 14620	8.12351	0.65775	0.63012	3.7284	68.83	-0.2717	0.0047	0.2764	1672.2909	0.127744	-383.728271	-383.719166	-383.718222	-383.763577	30.763
O          0.27100        0.05440       -0.25560
C          0.30320        1.24470       -0.33290
O          0.77620        2.02840        0.65440
C          0.80840        3.44330        0.43630
C          2.23970        3.91540        0.20650
C          2.31790        5.44950        0.07290
C          3.67720        5.92430       -0.15080
C          4.80630        6.29130       -0.33550
H         -0.05410        1.82610       -1.20670
H          0.16500        3.70650       -0.41450
H          0.38110        3.90300        1.33320
H          2.86560        3.58380        1.04040
H          2.64010        3.44630       -0.69860
H          1.67540        5.78230       -0.75350
H          1.91190        5.91810        0.97930
H          5.80080        6.62600       -0.49800
