19
gdb 13004	2.67959	2.42338	1.527	1.5975	77.01	-0.2218	0.0275	0.2493	902.8402	0.165946	-327.923378	-327.915582	-327.914638	-327.954841	30.465
C         -0.05530        1.49490        0.02800
C         -0.04970       -0.00050       -0.01720
C          0.01510       -0.78200       -1.09970
C          0.02750       -2.25880       -0.76540
C          0.02530       -2.25620        0.75820
N          1.21730       -1.61010        1.35880
C         -0.06260       -0.84790        1.23090
C         -0.79630       -0.40180        2.46880
H          0.81710        1.87680        0.57370
H         -0.03980        1.92350       -0.97770
H         -0.94210        1.88220        0.54540
H          0.09520       -0.41710       -2.11850
H         -0.85200       -2.78020       -1.16700
H          0.91230       -2.76610       -1.16940
H         -0.44820       -3.06750        1.30210
H          1.29700       -1.94020        2.32090
H         -0.32480        0.47950        2.91920
H         -1.83640       -0.14200        2.24250
H         -0.80720       -1.19580        3.22280
