13
gdb 5447	3.76974	1.90923	1.26736	1.7098	69.51	-0.1882	0.0287	0.2169	885.64	0.095714	-361.469525	-361.462279	-361.461335	-361.500638	27.782
O          0.09400        1.30170        0.08680
C          0.05620       -0.03990       -0.02060
C          0.02480       -0.86680       -1.13320
C         -0.00830       -2.21320       -0.62280
C          0.00430       -2.14500        0.74040
N          0.04400       -0.80270        1.10010
C          0.02760       -0.38650       -2.45810
C          0.03180        0.08000       -3.57180
H          0.09670        1.65810       -0.81140
H         -0.03770       -3.11020       -1.22010
H         -0.01090       -2.91420        1.49370
H          0.06130       -0.43360        2.03490
H          0.03500        0.46850       -4.55940
