15
gdb 2767	3.71781	2.55363	1.8752	3.6885	57.25	-0.2429	-0.0293	0.2136	715.9779	0.123705	-345.638357	-345.631107	-345.630162	-345.670291	25.082
C         -0.28960        1.53540       -0.06030
C         -0.00130        0.04130       -0.03440
C          1.29790       -0.45820       -0.70770
O          1.72070       -1.13890        0.49200
C          0.62580       -0.61640        1.24350
C          1.02950        0.34870        2.33760
O          2.13710        0.78700        2.49870
H          0.57050        2.11650        0.28720
H         -0.51890        1.85700       -1.08170
H         -1.15040        1.79290        0.56560
H         -0.87780       -0.51980       -0.36680
H          1.17920       -1.14790       -1.55060
H          1.99830        0.33900       -0.98810
H          0.01220       -1.40930        1.69790
H          0.17940        0.64420        2.99900
