14
gdb 17228	5.61278	1.69828	1.54452	3.2688	66.6	-0.2513	0.0106	0.2619	809.305	0.109287	-341.518357	-341.512362	-341.511418	-341.548385	23.458
N          0.08600       -1.09390       -0.09560
C          0.04950        0.06140       -0.02680
C         -0.02340        1.47880        0.07400
C         -1.10890        2.36020        0.68690
N         -0.53810        3.53700       -0.07020
C          0.81360        3.70130        0.60370
C          1.24390        2.38190       -0.01110
C          0.14610        2.52360       -1.00990
H         -2.09980        2.11690        0.29900
H         -1.14750        2.48550        1.77340
H          1.33570        4.55210        0.16000
H          0.77280        3.81230        1.69170
H          2.22170        1.93560       -0.13910
H          0.06610        2.47930       -2.08630
