10
gdb 4238	4.59982	2.17231	2.05877	2.2145	36.25	-0.2957	0.0685	0.3642	624.4932	0.062871	-490.793044	-490.786942	-490.785997	-490.823619	21.176
F         -0.34640        0.13290       -0.23670
C         -0.06060        1.41390        0.00980
F          1.25620        1.50840        0.23030
F         -0.33930        2.12640       -1.09340
C         -0.84690        1.95350        1.18240
C         -2.11690        1.33840        1.57660
O         -0.91330        1.10610        2.31450
H         -0.65480        3.00750        1.37730
H         -2.86350        1.95080        2.07750
H         -2.49160        0.48310        1.02060
