14
gdb 9441	2.91095	1.78206	1.68569	4.1626	63.05	-0.288	-0.0058	0.2822	851.5036	0.106975	-378.731102	-378.723471	-378.722527	-378.763101	27.311
C         -0.10830        1.54930        0.11090
C         -0.02230        0.02110        0.01090
C          0.84420       -0.55430       -1.14950
O          1.81380       -1.05980       -0.18540
C          1.07530       -0.60600        0.88230
N          1.26160       -0.65820        2.11500
C         -1.33330       -0.60310        0.14780
N         -2.37810       -1.08920        0.23220
H          0.88530        1.98740       -0.01500
H         -0.77420        1.94980       -0.65800
H         -0.49100        1.83680        1.09240
H          0.39610       -1.36600       -1.72420
H          1.29180        0.19450       -1.80640
H          2.12850       -1.13970        2.35720
