18
gdb 17659	3.3044	1.7446	1.46968	2.9867	66.87	-0.2449	0.0715	0.3164	921.8037	0.153007	-384.892893	-384.884939	-384.883995	-384.925409	29.208
C          0.01460        1.65990        0.23370
C         -0.03350        0.15060        0.00120
C          0.92000       -0.35410       -1.11140
O          1.83590       -0.89910       -0.14120
C          0.90930       -0.65890        0.93400
C         -1.46240       -0.33330       -0.04640
C         -2.21200       -0.50980       -1.29610
O         -1.70550       -1.63690       -0.57540
H          1.05020        2.00490        0.30740
H         -0.46770        2.20210       -0.58700
H         -0.49740        1.93390        1.16340
H          0.49500       -1.13910       -1.74780
H          1.38810        0.41810       -1.73350
H          1.36840       -0.10450        1.76170
H          0.47510       -1.59230        1.31500
H         -2.04000       -0.11240        0.85480
H         -3.29570       -0.40560       -1.29970
H         -1.72480       -0.31070       -2.25000
