16
gdb 19255	3.25785	1.82865	1.42449	3.1129	64.52	-0.2426	-0.0285	0.2141	893.9561	0.128978	-383.706662	-383.699039	-383.698095	-383.739088	27.737
C         -0.09350        1.56320       -0.01710
C          0.04680        0.04810        0.00430
C          0.69100       -0.63100       -1.21520
O          2.05600       -0.19870       -1.27610
C          1.72170       -1.27380       -0.39010
C          1.17760       -0.63930        0.90390
C          2.12730        0.25810        1.65490
O          2.11440        0.39800        2.85330
H          0.83200        2.03640       -0.35490
H         -0.89640        1.86380       -0.69870
H         -0.33660        1.95170        0.97690
H         -0.90820       -0.42710        0.24700
H          0.23320       -0.94000       -2.14770
H          2.25680       -2.20760       -0.51480
H          0.73880       -1.35700        1.59970
H          2.85570        0.80260        1.01780
