17
gdb 16745	4.15627	1.52242	1.46127	4.3944	67.77	-0.2349	-0.0092	0.2257	913.3386	0.143707	-363.858991	-363.85185	-363.850906	-363.890902	26.846
O         -0.66340        0.65920        0.02470
C         -0.08710        1.71800        0.05460
C          1.42360        1.85860       -0.00510
C          1.87060        2.72540       -1.22630
C          2.16890        4.09980       -0.66130
N          1.05970        4.63560        0.15930
C          2.23460        4.02090        0.81690
C          1.98100        2.59290        1.25690
H         -0.63480        2.68030        0.12950
H          1.82010        0.84330       -0.07690
H          2.77940        2.30370       -1.66860
H          1.10940        2.75340       -2.01340
H          2.78270        4.79330       -1.22700
H          1.13570        5.64820        0.21000
H          2.89930        4.65320        1.39660
H          1.29260        2.53340        2.10680
H          2.92340        2.13080        1.56970
