12
gdb 2873	7.87148	1.93978	1.59552	4.9261	57.54	-0.2471	-0.0482	0.1989	724.7431	0.092675	-319.576017	-319.569974	-319.56903	-319.605969	21.489
N          0.10950       -1.10710       -0.11950
C          0.00380        0.04180       -0.05840
C         -0.07040        1.47720        0.00620
N         -1.16490        2.12650       -0.12200
C         -0.79790        3.54640        0.03870
C          0.75370        3.59950       -0.02550
N          1.08910        2.19630        0.26520
H         -1.28130        4.15300       -0.73080
H         -1.17110        3.89090        1.01110
H          1.11030        3.89580       -1.02090
H          1.19170        4.27220        0.71520
H          1.96630        1.82240       -0.06750
