22
gdb 13279	6.53155	0.74788	0.71025	1.9953	78.61	-0.2412	0.0793	0.3205	1649.2123	0.199955	-350.191272	-350.181874	-350.180929	-350.22674	33.035
C          0.05570        1.55200        0.12740
C         -0.01590        0.02770        0.00500
C          0.70980       -0.51290       -1.23170
C          0.63880       -2.03870       -1.36370
C          1.37280       -2.57400       -2.58690
C          2.92000       -2.58490       -2.55000
O          2.96370       -4.01440       -2.73100
C          1.52480       -4.10670       -2.71820
H          1.09400        1.89570        0.19500
H         -0.39680        2.04100       -0.74260
H         -0.47040        1.90690        1.01910
H          0.41190       -0.43340        0.90500
H         -1.06690       -0.28930       -0.02620
H          0.28460       -0.05080       -2.13380
H          1.76230       -0.19750       -1.19940
H          1.05680       -2.50570       -0.46070
H         -0.41360       -2.35200       -1.40940
H          0.97690       -2.11010       -3.49550
H          3.43550       -2.05320       -3.35910
H          3.36030       -2.27940       -1.59020
H          1.15760       -4.68260       -1.85720
H          1.13440       -4.55950       -3.63800
