22
gdb 10852	4.38454	1.34733	1.08937	0.228	84.84	-0.2251	0.0364	0.2615	1168.7612	0.20123	-313.106753	-313.09825	-313.097306	-313.139166	33.027
C         -0.01600        1.57890        0.00010
C          0.02130        0.04880       -0.01020
C          0.73650       -0.50670       -1.24930
C          0.66080       -2.03790       -1.30240
C          0.96520       -2.69130        0.02790
C          1.23690       -4.17080       -0.00740
C          0.98170       -1.98720        1.16250
C          0.68530       -0.51320        1.25780
H          0.99830        1.99570       -0.01000
H         -0.54490        1.97050       -0.87550
H         -0.52120        1.95990        0.89450
H         -1.01450       -0.32070       -0.03260
H          0.30880       -0.07680       -2.16270
H          1.78960       -0.19400       -1.21990
H         -0.33910       -2.35480       -1.63730
H          1.35220       -2.42280       -2.06440
H          2.11100       -4.40020       -0.63110
H          1.41650       -4.57480        0.99260
H          0.39270       -4.71780       -0.44820
H          1.22120       -2.49510        2.09550
H          1.61740        0.03930        1.45980
H          0.04460       -0.32080        2.12900
