15
gdb 17221	5.63326	1.68002	1.53116	1.1398	72.44	-0.2266	0.0329	0.2595	836.0245	0.11942	-325.412098	-325.405717	-325.404773	-325.442305	25.67
C          0.05580       -1.14570       -0.05130
C          0.03270        0.05710       -0.00090
C         -0.02950        1.47310        0.08090
C         -1.10650        2.36950        0.68920
N         -0.53570        3.54150       -0.07650
C          0.81580        3.70570        0.59580
C          1.23870        2.37650       -0.00110
C          0.14360        2.51450       -1.00680
H          0.08050       -2.20590       -0.09880
H         -2.10040        2.12830        0.30580
H         -1.14560        2.50460        1.77550
H          1.34230        4.55080        0.14470
H          0.77360        3.83100        1.68300
H          2.21620        1.92820       -0.12420
H          0.07360        2.47430       -2.08420
