16
gdb 14117	4.01043	1.7711	1.38922	2.9241	65.31	-0.2396	0.0186	0.2582	893.0386	0.131889	-379.919561	-379.912151	-379.911207	-379.951265	28.095
N          0.51960        0.28290       -0.99600
C         -0.05540        0.20470        0.23380
O          0.42830        0.66950        1.25110
C         -1.34860       -0.54750        0.25870
C         -2.31040       -0.59310        1.45120
C         -2.62290       -2.08970        1.11570
C         -1.64060       -2.00220       -0.05970
N         -1.99700       -0.94390       -0.99060
H          1.36970        0.81050       -1.09870
H         -0.00510       -0.00900       -1.80410
H         -1.78020       -0.47380        2.39610
H         -3.14150        0.11840        1.41500
H         -2.29260       -2.77090        1.90230
H         -3.65350       -2.34120        0.84420
H         -0.96350       -2.77420       -0.40730
H         -2.99380       -0.73390       -0.99980
