15
gdb 16797	3.67655	1.95104	1.38694	4.3799	68.61	-0.2314	-0.051	0.1804	878.5934	0.119614	-362.666693	-362.659765	-362.658821	-362.697724	26.242
C         -0.01190        1.48430        0.07860
C         -0.02870       -0.00350       -0.01800
C          0.00520       -0.76540       -1.12540
C         -0.01450       -2.21080       -0.78460
O         -0.07540       -3.15230       -1.53970
C          0.01270       -2.27530        0.73770
N          1.24730       -1.65380        1.30300
C         -0.01950       -0.87730        1.20840
H          0.87670        1.82050        0.62760
H         -0.01130        1.95660       -0.90620
H         -0.88160        1.85040        0.63840
H          0.06570       -0.41300       -2.14740
H         -0.45460       -3.10510        1.25360
H          1.35030       -1.99710        2.25910
H         -0.52360       -0.56760        2.11740
