18
gdb 10744	3.0378	1.65784	1.40207	1.1045	73.45	-0.2637	0.0352	0.2989	975.3184	0.150923	-347.755019	-347.746074	-347.74513	-347.787954	33.905
C          0.15720        1.41550        0.08990
C         -0.04210       -0.10470        0.00820
O          0.57470       -0.64160        1.18520
C         -1.47530       -0.43830       -0.00020
C         -2.63920       -0.74020       -0.00240
C          0.61530       -0.66010       -1.26180
C          2.09880       -0.90720       -1.29950
C          1.13510       -2.06970       -1.32440
H          1.22700        1.63160        0.14910
H         -0.25570        1.90610       -0.79510
H         -0.33620        1.81280        0.97940
H          0.17110       -1.49730        1.36260
H         -3.66950       -0.99870       -0.00320
H          0.15910       -0.27760       -2.17010
H          2.64040       -0.65530       -2.20430
H          2.64700       -0.75210       -0.37760
H          1.07950       -2.67780       -0.42810
H          1.00070       -2.62350       -2.24660
