16
gdb 5545	3.18222	1.99147	1.31676	1.0246	67.88	-0.169	0.0558	0.2248	925.1972	0.131195	-379.932554	-379.92422	-379.923275	-379.965654	30.093
C         -0.51690        0.92050        0.08980
O          0.77020        0.29390        0.06680
C          0.99220       -0.48450       -1.02620
C          0.61760       -1.78330       -1.28660
N         -0.20230       -2.58410       -0.45960
C          1.14500       -2.11140       -2.57060
C          1.82100       -1.00810       -3.04290
N          1.71270       -0.01360       -2.10710
H         -0.63480        1.61130       -0.75440
H         -1.31780        0.17350        0.05220
H         -0.57700        1.47860        1.02710
H         -0.07340       -2.34170        0.51670
H          0.01210       -3.56820       -0.56820
H          1.03150       -3.05350       -3.08570
H          2.37210       -0.85790       -3.95650
H          2.17170        0.87970       -2.12820
