19
gdb 1312	3.16662	2.52504	2.07045	1.2635	67.09	-0.2523	0.0773	0.3296	763.2153	0.170361	-310.915408	-310.907317	-310.906373	-310.946841	30.74
C         -0.08170        1.51060        0.04790
C         -0.01800       -0.01920        0.01160
C         -1.39630       -0.61500       -0.25810
C          1.15900       -0.53070       -0.88300
C          2.04960       -0.64440        0.38440
C          0.75270       -0.60560        1.23300
O          0.70580        0.18690        2.39780
H          0.90000        1.95830        0.22530
H         -0.46070        1.89230       -0.90680
H         -0.74670        1.85590        0.84480
H         -1.79860       -0.26280       -1.21510
H         -1.35790       -1.70920       -0.29550
H         -2.10780       -0.32980        0.52550
H          0.94340       -1.50650       -1.32790
H          1.50080        0.14280       -1.67280
H          2.69640       -1.52010        0.48050
H          2.64550        0.25700        0.55000
H          0.39910       -1.62720        1.44110
H          1.22410       -0.24850        3.08170
