7
gdb 11	57.22434	10.11122	9.07368	2.5682	25.11	-0.254	-0.0198	0.2342	166.9728	0.055355	-153.787612	-153.783728	-153.782784	-153.812518	11.219
C         -0.00290        1.50990        0.00870
C          0.02610        0.00330       -0.03750
O          0.94230       -0.65510       -0.45680
H          0.92280        1.92630       -0.39150
H         -0.86200        1.87850       -0.56480
H         -0.15050        1.84390        1.04290
H         -0.89440       -0.48640        0.35770
