15
gdb 2582	3.28737	2.63413	1.8067	2.8417	52.88	-0.2554	0.0582	0.3136	726.7973	0.124372	-382.755486	-382.74811	-382.747166	-382.786944	26.749
O          0.27390        1.26730        0.26960
C          0.09810       -0.08070       -0.11370
C         -1.35490       -0.51910       -0.13390
C         -2.27850        0.24160       -1.06390
O         -2.35840        1.62270       -0.70780
C         -1.72370       -1.87860        0.28200
O         -1.94700       -0.77210        1.15610
H         -0.40310        1.78340       -0.18910
H          0.53010       -0.27980       -1.11100
H          0.64590       -0.69280        0.61000
H         -1.89630        0.21910       -2.08970
H         -3.27440       -0.22080       -1.05800
H         -2.69580        1.65610        0.19600
H         -2.61930       -2.34640       -0.12570
H         -0.94420       -2.57160        0.59540
