12
gdb 21363	5.48716	2.21161	1.57629	3.6123	60.96	-0.217	-0.0003	0.2166	725.9104	0.087163	-377.520646	-377.515168	-377.514224	-377.549981	21.658
N         -0.03660        1.33260        0.01000
C          1.27180        1.83810        0.00000
C          2.17300        0.80430       -0.01450
C          1.39940       -0.40380       -0.01370
C          0.07740       -0.01600        0.00130
O         -0.78540       -1.02530        0.00410
N          0.01720       -2.21580       -0.01040
C          1.27110       -1.81930       -0.02040
H         -0.88240        1.87430        0.02130
H          1.43150        2.90410        0.00440
H          3.24580        0.91140       -0.02440
H          2.03240       -2.58740       -0.03210
