20
gdb 6161	3.38263	1.40353	1.28028	2.6287	77.08	-0.239	-0.0098	0.2292	1082.5603	0.174542	-349.029619	-349.020316	-349.019372	-349.063213	34.365
C         -0.09490        1.46990        0.17970
C          0.05780       -0.01340       -0.11010
O          1.14070       -0.49850       -0.37380
C         -1.19560       -0.81780       -0.04960
C         -1.25290       -2.15110       -0.77900
C         -1.26180       -2.15960        0.71400
C         -0.04430       -2.66770        1.46090
C         -2.58060       -2.44020        1.41130
H          0.87910        1.95880        0.14110
H         -0.76710        1.93060       -0.55360
H         -0.54980        1.62180        1.16530
H         -2.10950       -0.23330       -0.01150
H         -2.16640       -2.38700       -1.31490
H         -0.33230       -2.43210       -1.27960
H          0.88120       -2.40630        0.94730
H         -0.00500       -2.25350        2.47520
H         -0.09550       -3.75880        1.55380
H         -2.71900       -3.51910        1.54800
H         -2.61090       -1.97520        2.40320
H         -3.43230       -2.06490        0.83560
