16
gdb 17249	4.58479	1.60233	1.54662	2.2384	63.41	-0.2304	0.0599	0.2903	863.6138	0.130594	-383.657846	-383.650949	-383.650005	-383.689137	26.466
O          0.12440        1.32020       -0.39810
C         -0.03970        0.03280        0.18350
C         -1.45010       -0.46870        0.12840
C         -2.65800       -0.04490        0.97580
C         -3.36270       -1.27340        0.34880
O         -3.50110       -0.90850       -1.05430
C         -2.08580       -1.06470       -1.14290
C         -1.95120       -1.91600        0.07230
H         -0.45510        1.92950        0.07030
H          0.61350       -0.63510       -0.39030
H          0.32510        0.01920        1.22370
H         -2.46210       -0.18700        2.04260
H         -3.13310        0.92520        0.79440
H         -4.25180       -1.73720        0.76990
H         -1.61150       -1.08350       -2.11500
H         -1.48600       -2.86860        0.28550
