16
gdb 6431	4.77025	1.28491	1.22217	0.2123	66.67	-0.2581	-0.0323	0.2258	1001.0455	0.127474	-383.762417	-383.754283	-383.753339	-383.795227	29.567
C         -0.17100        1.64750       -0.00980
C          0.00780        0.13440        0.01630
C          1.17690       -0.38690       -0.89960
C          2.02680       -0.54700        0.36920
O          3.19770       -0.65610        0.57480
C          0.79470       -0.39450        1.27270
C         -1.28770       -0.60400       -0.21410
O         -2.35910       -0.08940       -0.40060
H          0.78350        2.15610        0.15920
H         -0.57040        1.97320       -0.97400
H         -0.87490        1.96730        0.76310
H          0.96360       -1.36370       -1.35130
H          1.54590        0.28700       -1.67610
H          0.87560        0.27380        2.13310
H          0.44110       -1.37400        1.61790
H         -1.17900       -1.71610       -0.19900
