19
gdb 9358	7.02464	0.72397	0.68556	4.3527	70.19	-0.2431	0.0368	0.2799	1640.4988	0.163815	-402.228711	-402.218494	-402.217549	-402.265487	34.185
C          0.00040        1.44660       -0.13810
N         -0.15450        0.00940       -0.24560
C         -1.16800       -0.67010        0.36780
O         -2.02610       -0.11950        1.03520
C         -1.13400       -2.18580        0.17660
C         -2.53790       -2.76630       -0.01400
C         -2.54900       -4.28830        0.00350
O         -3.88480       -4.71550       -0.21080
H          0.95090        1.71340        0.33780
H         -0.04560        1.92820       -1.12130
H         -0.82170        1.81360        0.47720
H          0.51520       -0.51060       -0.78690
H         -0.47780       -2.46210       -0.65790
H         -0.68040       -2.60840        1.08390
H         -3.18780       -2.38440        0.77780
H         -2.96290       -2.42270       -0.96410
H         -1.87620       -4.68020       -0.77850
H         -2.16310       -4.65010        0.97150
H         -3.90140       -5.67650       -0.18700
