17
gdb 13545	3.64951	1.35733	1.10034	5.4645	69.1	-0.2601	0.0223	0.2825	1085.8102	0.14236	-360.02066	-360.011879	-360.010935	-360.054291	31.379
C         -0.80160        1.11890        0.28000
C         -0.14830       -0.24120        0.20290
N          1.20130       -0.31050       -0.37770
C          1.01350       -0.68340        1.02680
C          1.68460        0.20310        2.07450
N          1.05330        0.19200        3.39870
C          3.09550       -0.19540        2.21440
N          4.19060       -0.54970        2.31170
H         -0.07910        1.90270        0.51860
H         -1.25310        1.37470       -0.68410
H         -1.59730        1.13170        1.03330
H         -0.83580       -1.04380       -0.06390
H          1.32210       -1.13070       -0.96410
H          1.04880       -1.74230        1.28300
H          1.68140        1.23390        1.70560
H          0.07880        0.46070        3.29730
H          1.05900       -0.75130        3.77700
