18
gdb 10330	2.50201	1.57742	1.04199	3.4201	64.54	-0.2476	-0.0174	0.2302	1121.8239	0.150107	-422.075441	-422.065505	-422.064561	-422.110794	34.319
C          0.03420        1.54210       -0.17350
C         -0.01630        0.02850        0.03290
O          0.49560       -0.66610       -1.10060
C          0.69900       -0.44170        1.31870
C         -0.01470        0.01250        2.60500
O          0.50720       -0.60860        3.76590
C          0.79370       -1.96020        1.31210
O          1.82540       -2.57680        1.34760
H          1.07170        1.89640       -0.20260
H         -0.44080        1.79730       -1.12440
H         -0.48340        2.08150        0.62560
H         -1.06540       -0.28980        0.08610
H          1.43990       -0.48260       -1.16630
H          1.73040       -0.06000        1.31900
H          0.01590        1.10870        2.68450
H         -1.07040       -0.28080        2.56660
H          1.45340       -0.43330        3.80530
H         -0.19210       -2.47810        1.27890
