14
gdb 2605	3.53337	2.60955	1.78068	2.8753	54.37	-0.2569	-0.038	0.219	713.8518	0.112789	-361.688335	-361.68122	-361.680276	-361.719508	25.455
O          0.13670        1.39150        0.37270
C          0.03740        0.06350       -0.09540
C         -1.37720       -0.48040       -0.01650
C         -1.59170       -1.94680        0.19280
N         -1.93410       -1.01080        1.25350
C         -2.39880        0.28180       -0.78920
O         -2.14190        1.25700       -1.45710
H         -0.37790        1.92810       -0.24330
H          0.39280       -0.02780       -1.13320
H          0.69770       -0.54540        0.53300
H         -2.43580       -2.44880       -0.27270
H         -0.69320       -2.55350        0.27890
H         -1.20980       -0.97810        1.96750
H         -3.43570       -0.10350       -0.69140
