13
gdb 2630	15.48072	0.95573	0.91041	2.5637	57.4	-0.2616	-0.0322	0.2294	1165.3498	0.09754	-344.404557	-344.396448	-344.395504	-344.437946	26.44
O         -0.17320        0.17680        0.58400
C          0.07070        1.06910       -0.18270
C          1.34880        1.88970       -0.13340
O          1.29740        2.83700       -1.17020
C          2.44810        3.66220       -1.21730
C          2.32970        4.61690       -2.31010
C          2.25790        5.41490       -3.20400
H         -0.62190        1.37200       -0.99790
H          1.42780        2.36410        0.85970
H          2.21150        1.20910       -0.23440
H          2.57220        4.20030       -0.26230
H          3.35410        3.04770       -1.35410
H          2.18860        6.11860       -3.99660
