20
gdb 16233	2.81698	2.23751	1.44492	0.1854	80.77	-0.218	0.0294	0.2475	933.1967	0.178132	-311.873653	-311.866038	-311.865094	-311.905279	30.395
C         -0.60690        1.25720        0.04390
C          0.11130       -0.08560       -0.06900
C          1.24750       -0.10730       -1.13190
C          2.28220       -1.03000       -0.53280
C          2.02770       -1.28810        0.74970
C          0.78770       -0.61340        1.21720
C          0.78760        0.13150        2.54080
C         -0.00920       -1.13670        2.38700
H          0.08710        2.05600        0.32630
H         -1.06160        1.53270       -0.91360
H         -1.40970        1.22930        0.78920
H         -0.62550       -0.84310       -0.36700
H          0.88600       -0.44050       -2.11160
H          1.66900        0.89750       -1.28780
H          3.14210       -1.38990       -1.08640
H          2.64200       -1.89120        1.41060
H          1.69430        0.10310        3.13610
H          0.24700        1.06950        2.60330
H         -1.09070       -1.05040        2.33350
H          0.33820       -2.03470        2.88810
