19
gdb 1098	4.31774	1.54329	1.53705	0.3832	64.38	-0.254	0.0761	0.3301	932.5617	0.168052	-348.050463	-348.041129	-348.040185	-348.083789	33.192
C          0.00130        1.40490       -0.02300
O         -0.00020       -0.00150        0.00420
C          0.63860       -0.57380       -1.11520
C          0.58870       -2.10210       -0.99750
C          1.34300       -2.57190        0.25180
C         -0.86290       -2.59560       -0.99320
O          1.26230       -2.54070       -2.18250
H          1.02490        1.81200       -0.02910
H         -0.52630        1.79660       -0.90710
H         -0.51180        1.75160        0.87740
H          0.14310       -0.26780       -2.05080
H          1.69050       -0.25100       -1.17650
H          0.90500       -2.13970        1.15500
H          1.30410       -3.66400        0.33920
H          2.39290       -2.27000        0.19240
H         -1.35920       -2.31070       -1.92570
H         -0.89990       -3.68760       -0.90410
H         -1.41690       -2.16410       -0.15580
H          1.26720       -3.50330       -2.17470
