18
gdb 19023	4.40088	1.60855	1.60309	1.6158	70.3	-0.2355	0.072	0.3075	883.2891	0.154664	-347.736478	-347.729545	-347.7286	-347.767197	27.963
O          0.16800        1.30180       -0.08030
C          0.03510       -0.09070        0.00060
C         -0.43330       -0.67580        1.30160
C         -1.35300       -0.66070        0.04880
C         -1.37370       -2.20340        0.04340
C         -0.28800       -2.97670       -0.76800
C          0.63840       -2.99270        0.49470
C         -0.45200       -2.21850        1.29920
H         -0.53360        1.70770        0.44010
H          0.82600       -0.54720       -0.58540
H         -0.46030       -0.05280        2.19030
H         -2.20200       -0.02470       -0.18200
H         -2.37350       -2.63730        0.07680
H         -0.61250       -3.97360       -1.07540
H          0.10320       -2.46260       -1.64970
H          0.82160       -3.99850        0.88020
H          1.60340       -2.48960        0.39380
H         -0.78880       -2.66300        2.23620
