13
gdb 3275	5.95197	2.60187	2.12262	3.5174	54.85	-0.2383	0.017	0.2553	616.8234	0.10361	-340.591587	-340.585985	-340.585041	-340.620934	21.251
N         -0.11470        1.21030       -0.51650
C         -0.06040        0.04250       -0.07240
O          1.00170       -0.66960        0.47880
C          0.20680       -1.88840        0.57330
C         -0.52380       -2.05030        1.91820
N         -1.61290       -1.14440        1.44530
C         -1.03540       -1.11320        0.07090
H          0.78070        1.69250       -0.41820
H          0.70570       -2.73130        0.09840
H         -0.84230       -3.08570        2.08910
H          0.01240       -1.68700        2.79990
H         -2.53140       -1.56870        1.47510
H         -1.68280       -1.37060       -0.76590
