14
gdb 18952	7.39745	1.35016	1.32549	1.242	62.24	-0.2505	-0.0314	0.219	897.2486	0.106361	-382.44361	-382.43739	-382.436446	-382.474266	23.604
O         -0.05390       -0.12470       -0.18900
C          0.00240        1.05590        0.04610
C          1.26000        1.87030        0.03320
C          1.19750        3.25990       -0.66560
C          0.52320        3.95170        0.56290
O          1.50110        5.02860        0.64290
C          2.27800        3.85040        0.29160
C          1.46410        2.87920        1.20080
H         -0.91990        1.63230        0.29770
H          2.11810        1.24170       -0.21770
H          1.04980        3.49360       -1.71920
H         -0.52110        4.18650        0.75990
H          3.35480        3.94110        0.15630
H          1.61830        2.68190        2.26100
