18
gdb 7291	4.29755	1.10008	1.00079	2.4348	74.17	-0.244	-0.0159	0.2281	1210.3639	0.149884	-347.799022	-347.789286	-347.788342	-347.834056	34.247
C         -0.01100        1.51750       -0.13470
C         -0.01480       -0.01780        0.00860
C          0.75440       -0.47680        1.26800
C          2.16610       -0.11830        1.23390
C          3.32970        0.18070        1.18140
C         -1.46100       -0.51630        0.06480
C         -2.16770       -0.70760       -1.26480
O         -2.01120       -0.74320        1.11870
H          1.01800        1.88480       -0.15920
H         -0.51070        1.84110       -1.05220
H         -0.52240        1.98260        0.71440
H          0.46630       -0.44500       -0.87990
H          0.27030       -0.04640        2.15140
H          0.65390       -1.56310        1.37700
H          4.35940        0.43800        1.15410
H         -2.02030        0.15190       -1.92600
H         -1.73910       -1.57780       -1.77700
H         -3.23220       -0.87830       -1.10060
