13
gdb 2662	11.93188	0.84608	0.83282	2.0238	59.76	-0.2539	-0.0331	0.2209	1294.1033	0.098908	-344.423318	-344.415038	-344.414094	-344.457951	26.652
O          0.09160        1.18530       -0.80730
C          0.05110        0.12490        0.13640
C         -1.27870       -0.46280        0.30080
C         -2.39620       -0.88990        0.44450
C         -3.71880       -1.47910        0.58660
C         -3.79960       -2.88290       -0.02130
O         -4.42690       -3.78170        0.46720
H         -0.57680        1.82840       -0.54860
H          0.75090       -0.63120       -0.23620
H          0.42810        0.44610        1.12050
H         -4.04390       -1.53760        1.63040
H         -4.46150       -0.86420        0.05500
H         -3.23510       -3.00120       -0.97120
