13
gdb 5338	6.05867	1.52914	1.22098	1.9174	76.14	-0.2582	-0.0515	0.2067	916.766	0.097511	-324.353627	-324.34728	-324.346336	-324.384035	24.274
C          0.01850       -1.21190       -0.00390
C          0.00210       -0.00820        0.00270
C         -0.01720        1.41550        0.01040
C         -1.22470        2.12680        0.03060
C         -1.18420        3.51570        0.03740
N         -0.05540        4.23110        0.02590
C          1.09250        3.54680        0.00670
C          1.17070        2.15950       -0.00170
H          0.03290       -2.27390       -0.00960
H         -2.17110        1.59960        0.04060
H         -2.11100        4.08430        0.05290
H          2.00350        4.14040       -0.00250
H          2.13100        1.65830       -0.01730
