17
gdb 9297	3.45269	1.15126	0.91265	2.5478	74.45	-0.2495	0.0198	0.2693	1278.8912	0.138686	-363.82035	-363.810699	-363.809755	-363.855437	33.129
C          0.35020        0.94520       -0.44640
O         -0.13300        0.23540        0.68810
C          0.62690       -0.80350        1.08530
N          0.27530       -1.48960        2.08090
C          1.08640       -2.62600        2.51300
C          0.19400       -3.88160        2.55040
C          2.31280       -2.88160        1.74280
C          3.30870       -3.08970        1.10050
H          0.40910        0.29840       -1.33020
H         -0.36700        1.74450       -0.63650
H          1.33620        1.38580       -0.25520
H          1.52970       -0.97340        0.48520
H          1.38710       -2.40850        3.54760
H         -0.12130       -4.15050        1.53870
H          0.73470       -4.72630        2.98510
H         -0.69540       -3.67120        3.14870
H          4.19540       -3.28480        0.54930
