20
gdb 6585	4.02114	1.78394	1.5676	1.5667	74.95	-0.2326	0.0862	0.3189	915.1661	0.177197	-349.000957	-348.993309	-348.992364	-349.032071	30.861
C         -0.06870        1.52980        0.02840
C          0.03480        0.02360        0.02900
C          0.99400       -0.77790       -0.91290
C          0.68040       -1.90540        0.10760
C          1.41920       -3.20990        0.20640
C          0.67430       -0.79900        1.19690
O         -0.72980       -2.13820       -0.10850
C         -1.24930       -0.79590       -0.17380
H          0.91090        1.99380        0.18120
H         -0.46820        1.89940       -0.92320
H         -0.73290        1.88190        0.82630
H          0.68760       -0.94360       -1.94960
H          2.02520       -0.42120       -0.86170
H          2.48630       -3.03620        0.37140
H          1.03110       -3.80800        1.03690
H          1.29890       -3.78920       -0.71440
H          1.67330       -0.44440        1.46050
H          0.07500       -0.98400        2.09290
H         -1.99280       -0.63540        0.61770
H         -1.72540       -0.61770       -1.14670
