15
gdb 13829	4.71222	1.46155	1.13202	2.1627	65.01	-0.2425	-0.0335	0.209	995.0555	0.119126	-399.833185	-399.825363	-399.824418	-399.865979	27.651
N         -0.04730        1.33210        0.04420
C          0.03470       -0.03630        0.03010
O          1.10150       -0.62300        0.02160
C         -1.27320       -0.74500        0.05640
C         -1.40410       -2.06990        0.00960
C         -2.85080       -2.44580        0.06070
O         -3.55960       -1.20970        0.13870
C         -2.64570       -0.11930        0.14970
H          0.81310        1.84250       -0.07560
H         -0.90970        1.81760       -0.13350
H         -0.58520       -2.77390       -0.05330
H         -3.17010       -3.00620       -0.83220
H         -3.08840       -3.07240        0.93510
H         -2.77480        0.46890        1.07240
H         -2.86400        0.55190       -0.69840
