14
gdb 7717	3.46873	1.98349	1.30597	0.8718	61.21	-0.2619	-0.0223	0.2397	874.9417	0.109267	-415.898851	-415.892088	-415.891144	-415.930076	25.192
N         -0.10450        1.31630       -0.12170
C         -0.02210        0.05850        0.03010
C         -1.27980       -0.78410        0.11360
O         -1.10360       -1.91890        0.93640
C         -0.08930       -2.76800        0.45080
C          1.24900       -2.06240        0.25930
O          2.31020       -2.64100        0.22950
N          1.15580       -0.68810        0.10470
H          0.81410        1.75650       -0.20850
H         -2.07760       -0.17850        0.54230
H         -1.57710       -1.08180       -0.90660
H          0.05440       -3.56930        1.17750
H         -0.37080       -3.22680       -0.51290
H          2.04330       -0.20740        0.01700
