12
gdb 2740	4.64919	2.28181	1.66983	3.6291	57.44	-0.247	0.0227	0.2697	713.3676	0.089611	-323.359336	-323.352647	-323.351703	-323.390098	23.899
O         -0.06740        0.00380        0.04460
C         -0.05210        1.20040        0.03110
N         -1.02700        2.15900       -0.04770
C         -0.14360        3.32110        0.04840
C          1.05950        2.31750        0.07800
C          1.92720        2.33720        1.23140
C          2.63630        2.34920        2.20180
H         -2.03190        2.07730       -0.08750
H         -0.17080        3.98390       -0.82140
H         -0.25900        3.90060        0.96790
H          1.63350        2.32680       -0.85340
H          3.26820        2.35180        3.05520
