16
gdb 20116	5.09833	1.3528	1.19916	2.6236	67.83	-0.2539	-0.0085	0.2454	1015.4845	0.131428	-379.890274	-379.882688	-379.881744	-379.922805	27.133
O         -0.09880        0.24340        0.56990
C         -0.16270        1.45580        0.50470
C          1.05920        2.31820        0.46650
C          2.16590        1.94310        1.40030
N          2.29530        1.69140       -0.02990
N         -1.36460        2.15370        0.53880
C         -1.89800        2.93750       -0.56460
C         -2.55940        1.66950       -0.10990
H          0.91760        3.36040        0.19980
H          2.80210        2.72880        1.79710
H          1.98120        1.10120        2.06090
H          2.07460        0.70950       -0.20040
H         -2.32390        3.90150       -0.30150
H         -1.36130        2.91200       -1.50990
H         -2.45430        0.78460       -0.73130
H         -3.47150        1.72110        0.47710
