12
gdb 21142	7.24141	1.36251	1.15497	1.9909	54.96	-0.2409	0.0188	0.2597	963.2961	0.082919	-451.776592	-451.769301	-451.768356	-451.80901	25.158
C         -0.01380        1.38460        0.11160
N          0.27220       -0.04140        0.08340
C          0.66890       -0.56960       -0.96990
O          0.90720       -0.02620       -2.20170
N          1.33680       -1.06890       -3.08940
C          1.32970       -2.10530       -2.33420
O          1.65120       -3.34170       -2.66580
O          0.95530       -1.92750       -1.06170
H          0.75510        1.89770        0.70030
H         -0.06170        1.85240       -0.87840
H         -0.96890        1.54170        0.62150
H          1.90530       -3.34660       -3.59930
