18
gdb 18524	5.53407	1.14803	1.07654	2.5805	68.65	-0.2473	0.0799	0.3272	1151.7601	0.152449	-384.888993	-384.880974	-384.88003	-384.922038	29.189
C          0.05670        1.49450       -0.01840
C         -0.12050       -0.00220       -0.20800
O          0.93010       -0.47660       -1.03180
C          0.89530       -1.85170       -1.25230
C         -0.15620       -2.46870       -2.26310
C          1.03850       -3.03340       -3.04010
O          1.80710       -1.90990       -3.47220
C          2.01640       -2.39010       -2.14190
H          1.01940        1.70930        0.45400
H          0.02740        2.00790       -0.98350
H         -0.74010        1.89610        0.61470
H         -0.10100       -0.52270        0.76480
H         -1.09650       -0.22000       -0.67080
H          0.86060       -2.40620       -0.30050
H         -0.80560       -3.21670       -1.80350
H         -0.74790       -1.74580       -2.82870
H          1.11910       -3.94930       -3.61290
H          3.02820       -2.66340       -1.86600
