15
gdb 10365	2.55881	2.08408	1.40486	4.0037	71.39	-0.2787	0.0115	0.2902	909.5061	0.118188	-325.492508	-325.484731	-325.483787	-325.52456	28.788
C         -0.29750       -1.27850       -0.36110
C         -0.15730       -0.09930       -0.17980
C          0.04960        1.31500        0.08120
C         -0.08410        1.80730        1.57740
C          1.18360        2.67510        1.38400
C          1.54120        1.83610        0.13270
C         -0.76370        2.13960       -0.81720
N         -1.39190        2.81830       -1.51050
H         -0.43190       -2.31800       -0.53310
H         -1.02100        2.30090        1.83660
H          0.08270        0.96330        2.24890
H          0.93520        3.70680        1.12520
H          1.90810        2.68160        2.19920
H          2.20500        1.00100        0.36220
H          1.89830        2.35260       -0.75850
