14
gdb 5786	6.30481	1.51368	1.34836	0.2887	63.61	-0.2357	0.0029	0.2386	888.5019	0.109112	-378.714238	-378.707859	-378.706915	-378.745486	23.598
C          0.21430        1.59320        0.08340
C          1.24310        0.57300       -0.22740
N         -0.14190        0.16360        0.06400
C         -0.36930       -0.44450        1.30780
C         -1.26420       -1.42650        1.57610
O         -1.16620       -1.73390        2.90720
C         -0.20490       -0.90830        3.37130
N          0.30850       -0.12170        2.48520
H          0.27530        2.07440        1.05490
H         -0.23710        2.18130       -0.71000
H          1.55810        0.40120       -1.25220
H          1.98830        0.37590        0.53750
H         -1.98350       -1.97220        0.99300
H          0.03640       -0.98550        4.42010
