17
gdb 7324	4.58844	1.05248	0.8697	1.1662	65.63	-0.2392	-0.0607	0.1785	1306.3647	0.140129	-401.060421	-401.051064	-401.05012	-401.095378	32.522
C         -0.04290        1.56420        0.01100
C          0.00460        0.03450        0.00250
C         -1.38810       -0.59300        0.01230
C         -1.37910       -2.09980        0.00420
O         -0.37670       -2.78010       -0.00900
C         -2.77250       -2.77870        0.01410
N         -2.68100       -4.12630        0.00580
O         -3.80090       -2.12930        0.02770
H          0.96490        1.99000        0.00370
H         -0.57460        1.95120       -0.86540
H         -0.55800        1.94190        0.90130
H          0.55210       -0.32110       -0.87750
H          0.56860       -0.33030        0.86810
H         -1.97700       -0.27350        0.88310
H         -1.99330       -0.26440       -0.84380
H         -1.76690       -4.54910       -0.00570
H         -3.51440       -4.68910        0.01060
