16
gdb 18111	3.70333	2.33684	1.76955	1.6497	64.18	-0.2505	0.0093	0.2598	761.3918	0.13335	-383.751348	-383.745158	-383.744214	-383.781903	23.97
C         -0.09450        1.20890        0.03300
O          1.12100        1.89750        0.24290
C          2.13720        0.91590        0.43860
C          2.51450        0.71260        1.92600
C          1.86330       -0.59880        2.29130
C          1.31280       -1.21160        1.24470
C          1.46470       -0.41500       -0.02810
O          0.22700        0.00140       -0.60950
H         -0.60400        1.02250        0.99430
H         -0.73530        1.80240       -0.62560
H          2.99530        1.21100       -0.17000
H          3.60320        0.66780        2.05850
H          2.15950        1.55330        2.53180
H          1.87540       -0.98780        3.30440
H          0.79840       -2.16530        1.26230
H          2.01060       -0.95060       -0.81020
