20
gdb 11830	3.64573	1.60421	1.31119	1.82	74.88	-0.2547	0.0736	0.3284	1012.0067	0.175959	-348.980654	-348.972223	-348.971279	-349.013245	32.034
C         -0.75470        1.19460       -0.07810
C          0.16070       -0.01900       -0.01300
C          1.54330        0.05130       -0.73430
C          2.13660       -0.67840        0.46880
C          3.01080       -1.85100        0.49660
O          3.47530       -0.55880        0.91710
C          0.89850       -0.38270        1.32910
C          1.11180        0.75440        2.32650
H         -0.24690        2.10610        0.25250
H         -1.09780        1.36350       -1.10490
H         -1.64320        1.06090        0.54900
H         -0.38540       -0.90140       -0.36260
H          1.63450       -0.41990       -1.71600
H          1.91940        1.07780       -0.80120
H          2.90560       -2.58960        1.29100
H          3.45020       -2.22440       -0.42820
H          0.48170       -1.25130        1.84940
H          1.54460        1.64020        1.85100
H          0.16940        1.04930        2.79860
H          1.80460        0.43960        3.11240
