14
gdb 15978	3.57183	1.76185	1.39449	2.4856	58.61	-0.2534	-0.0362	0.2172	873.7375	0.105003	-419.626357	-419.619045	-419.618101	-419.658635	25.742
O         -0.37270        0.17950       -0.25760
C         -0.03590        1.26700        0.12410
C          1.32280        1.88850       -0.11470
O          2.26480        1.02940       -0.76430
C          2.41490        1.91420       -1.89820
C          1.39640        2.87730       -1.29730
C          0.41270        3.77790       -1.89280
O          1.56510        4.26290       -1.17690
H         -0.72850        1.93800        0.68620
H          1.70380        2.31460        0.82590
H          3.42820        2.32460       -1.97730
H          2.13160        1.42860       -2.83860
H          0.42490        3.95180       -2.96730
H         -0.54420        3.94840       -1.40270
