15
gdb 18683	3.20424	2.4848	1.60495	3.6458	61.57	-0.2402	-0.0105	0.2297	783.8221	0.120558	-399.790041	-399.783525	-399.782581	-399.820856	24.703
O         -0.03270        0.01710        0.41490
C         -0.04660        1.17350        0.07750
C         -1.31670        1.97940       -0.16330
O         -1.24530        3.15460        0.64100
C         -0.26370        4.05240        0.16200
C          1.09220        3.38430        0.00890
C          1.72230        2.57690        1.09590
N          1.13590        1.92610       -0.07980
H         -1.44150        2.23320       -1.22820
H         -2.17670        1.40120        0.17480
H         -0.56910        4.45970       -0.81660
H         -0.22210        4.88140        0.87500
H          1.75800        3.88060       -0.69540
H          2.80370        2.52090        1.17740
H          1.17860        2.47400        2.03130
