18
gdb 17962	2.64426	2.51151	1.50144	1.1307	76.53	-0.2185	-0.0137	0.2048	877.5218	0.155894	-347.800239	-347.793203	-347.792259	-347.831161	27.739
C         -0.07940        1.42560        0.05490
C          1.29890        2.10150       -0.06830
C          2.09080        1.55670       -1.22110
C          2.79700        0.42120       -1.17380
C          3.00110       -0.43550       -0.00220
C          2.14900       -0.79930        0.96510
C          0.66290       -0.58320        1.11540
O         -0.01840        0.01450        0.03750
H         -0.58410        1.77920        0.96900
H         -0.70900        1.69400       -0.79960
H          1.14190        3.18140       -0.17160
H          1.85280        1.94320        0.86500
H          2.05830        2.11140       -2.15570
H          3.35960        0.12960       -2.05930
H          4.01400       -0.82930        0.08450
H          2.54840       -1.41380        1.77250
H          0.20310       -1.57340        1.24670
H          0.46830       -0.03770        2.05650
