20
gdb 8267	6.02593	0.82554	0.82259	0.1461	85.6	-0.236	0.0592	0.2953	1507.275	0.175859	-311.845635	-311.836267	-311.835322	-311.881483	33.225
C          0.04690        1.55890       -0.09380
C          0.04570        0.10410       -0.03200
C          0.04900       -1.10030        0.01490
C          0.03070       -2.54680        0.09360
C          0.21220       -3.24010        1.48290
C         -0.84120       -4.29850        1.05380
C         -1.83320       -4.81250        2.08450
C         -1.33140       -3.30330       -0.03410
H          0.76260        1.92760       -0.83740
H         -0.94070        1.94820       -0.36610
H          0.31910        1.99970        0.87190
H          0.74810       -2.97030       -0.61870
H          1.21620       -3.58010        1.74780
H         -0.16930       -2.60030        2.28420
H         -0.33410       -5.14350        0.57290
H         -2.35180       -3.98230        2.57750
H         -2.59330       -5.45250        1.62220
H         -1.33220       -5.40090        2.86160
H         -2.15210       -2.68140        0.33550
H         -1.59840       -3.69530       -1.01830
