18
gdb 15583	3.4484	1.72194	1.2795	1.0737	73.35	-0.2472	0.0498	0.297	973.2442	0.153352	-347.780583	-347.772366	-347.771422	-347.813707	30.581
C          0.44270        1.50740       -0.39670
C          0.02980        0.10910        0.04350
O          0.12520       -0.77840       -1.07760
C          0.94850       -1.89620       -0.77310
C          1.87480       -1.43060        0.34700
C          0.91520       -0.53510        1.16330
C          1.56700        0.39490        2.06940
C          2.11230        1.15360        2.82630
H          1.50020        1.53700       -0.67590
H         -0.14970        1.80100       -1.26760
H          0.27660        2.23310        0.40380
H         -1.01530        0.13010        0.38040
H          0.33710       -2.75220       -0.44360
H          1.47700       -2.19000       -1.68520
H          2.29170       -2.24760        0.93960
H          2.70130       -0.83440       -0.05040
H          0.26790       -1.19450        1.75560
H          2.59320        1.82550        3.49330
