16
gdb 2156	3.58744	2.99509	1.74506	3.654	60.72	-0.2366	0.037	0.2736	729.3758	0.138754	-325.833945	-325.827092	-325.826148	-325.864649	25.373
C         -0.08230        1.57450       -0.01290
C          0.09320        0.05910       -0.00970
C          0.84120       -0.55050       -1.20890
C          1.50750       -1.81960       -0.63360
N          1.69610       -1.45960        0.76120
C          0.89730       -0.43940        1.20320
O          0.83270       -0.02290        2.33990
H          0.87880        2.07890       -0.16040
H         -0.76020        1.89600       -0.80930
H         -0.48720        1.90210        0.94800
H         -0.89530       -0.41400        0.08260
H          0.19620       -0.77250       -2.06170
H          1.61610        0.14590       -1.54740
H          0.85670       -2.69970       -0.74200
H          2.46070       -2.04910       -1.12010
H          2.20590       -2.02670        1.41980
