19
gdb 8678	2.45918	1.71063	1.3478	3.3447	71.92	-0.2793	0.0239	0.3032	1033.9485	0.162712	-365.073818	-365.064025	-365.06308	-365.107975	34.787
C          0.04150        1.56300       -0.07920
C         -0.03940        0.03660        0.00200
C         -1.48290       -0.51380        0.07480
C         -2.24310       -0.01480        1.31820
O         -2.10160       -0.11860       -1.14020
C         -3.42770       -0.56710       -1.36460
C         -1.40250       -1.99940        0.13200
N         -1.34760       -3.15320        0.17260
H          1.08000        1.87140       -0.22960
H         -0.55120        1.93840       -0.91630
H         -0.31310        2.04410        0.83710
H          0.42690       -0.40580       -0.88360
H          0.51160       -0.33420        0.87280
H         -2.41220        1.06100        1.23440
H         -3.20800       -0.51420        1.42690
H         -1.66020       -0.21390        2.22130
H         -3.67850       -0.27260       -2.38560
H         -3.50660       -1.65890       -1.27950
H         -4.14660       -0.10180       -0.67800
