16
gdb 2093	4.91506	2.43886	1.7375	2.2593	60.82	-0.2443	0.0284	0.2727	729.9612	0.138772	-325.795649	-325.789053	-325.788109	-325.825979	24.495
C         -0.02980        1.54630        0.00640
C          0.02270        0.01810       -0.00020
C          0.72880       -0.51410       -1.24450
O          0.81860       -1.94620       -1.23400
C          1.02270       -2.51410       -0.02000
N          1.03320       -1.98440        1.12720
C          0.74410       -0.55590        1.22700
H          0.97880        1.97530       -0.01380
H         -0.57650        1.93400       -0.85970
H         -0.52880        1.91550        0.90790
H         -1.00180       -0.37720       -0.00820
H          0.19530       -0.25620       -2.16330
H          1.74560       -0.10170       -1.31190
H          1.18940       -3.58310       -0.14140
H          1.68890       -0.01830        1.39520
H          0.14280       -0.39600        2.12950
