14
gdb 12338	3.24422	2.26592	1.40535	3.7708	58.69	-0.2636	-0.012	0.2516	831.7686	0.107576	-419.709598	-419.702697	-419.701753	-419.740973	25.741
O          0.40770        0.93920        0.68430
C         -0.06560       -0.17530       -0.01860
C         -1.55300       -0.11980       -0.24770
C         -2.07840       -0.85000       -1.22390
C         -1.18060       -1.66670       -2.10630
O          0.12540       -1.07980       -2.29980
C          0.66320       -0.29370       -1.36030
O          1.69170        0.30180       -1.56180
H          1.22950        1.19380        0.23590
H          0.16710       -1.10650        0.53670
H         -2.13480        0.50820        0.41760
H         -3.14440       -0.88950       -1.41990
H         -1.03990       -2.68220       -1.70940
H         -1.58990       -1.76500       -3.11490
