14
gdb 1263	7.67229	1.09743	0.97167	3.9461	64.39	-0.2494	-0.015	0.2344	1161.1068	0.111834	-324.588418	-324.579753	-324.578809	-324.623838	28.356
C          0.01100        1.54680        0.00980
C         -0.02090        0.00750        0.00550
C         -1.37260       -0.53690        0.01070
C         -2.50220       -0.95950        0.01500
C         -3.88830       -1.40250        0.02470
N         -4.03250       -2.76080       -0.01410
O         -4.82980       -0.63330        0.05450
H          1.04510        1.90310        0.00580
H         -0.49750        1.94780       -0.87060
H         -0.48880        1.94260        0.89750
H          0.51400       -0.37380       -0.87390
H          0.52250       -0.37880        0.87750
H         -3.23890       -3.37500        0.03410
H         -4.96240       -3.14210        0.04620
