18
gdb 16552	2.96062	2.67153	2.18992	1.4422	70.49	-0.2396	0.0066	0.2462	739.0662	0.158052	-347.811699	-347.805762	-347.804818	-347.841255	25.261
C          0.00060        1.53030        0.01300
C          1.52350        1.79260        0.00000
C          2.04090        1.42090        1.41340
C          1.70560       -0.05200        1.73560
O          0.40010       -0.45980        1.32990
C          0.02530       -0.00660        0.01730
C          1.12040       -0.28340       -1.00990
C          1.97600        0.74050       -1.00930
H         -0.51330        1.93480        0.88910
H         -0.47390        1.91000       -0.89650
H          1.80390        2.81530       -0.26540
H          3.12590        1.55540        1.49730
H          1.57350        2.09080        2.14420
H          2.45890       -0.69730        1.26360
H          1.74770       -0.23310        2.81360
H         -0.93420       -0.48610       -0.18500
H          1.22040       -1.21460       -1.55400
H          2.90300        0.80460       -1.56810
