18
gdb 14706	5.04066	0.80375	0.7022	1.8162	75.8	-0.2489	-0.0169	0.232	1583.0388	0.153063	-381.155422	-381.146241	-381.145297	-381.190007	31.726
C          0.07000        1.51640       -0.02220
C         -0.27300        0.02410        0.02180
C         -1.73460       -0.20800        0.42070
N         -2.23630       -1.57010        0.51340
C         -1.47700       -2.55060        0.26840
N         -1.97470       -3.84910        0.36230
C         -1.23320       -4.97850        0.11700
O         -0.06850       -4.98560       -0.20740
H          1.11410        1.67500       -0.30730
H         -0.55710        2.04670       -0.74720
H         -0.08330        1.98800        0.95480
H         -0.07970       -0.42440       -0.96100
H          0.39180       -0.48290        0.73270
H         -1.92330        0.26610        1.39450
H         -2.39040        0.32390       -0.28340
H         -0.42690       -2.52850       -0.02300
H         -2.94530       -3.93660        0.62930
H         -1.83450       -5.89750        0.25260
