17
gdb 1858	5.20515	1.9386	1.60148	1.6855	65.54	-0.2457	0.0143	0.26	810.3362	0.148942	-309.731599	-309.724469	-309.723525	-309.762687	27.012
C          0.06390        1.58050       -0.02040
C          0.04800        0.04830        0.02350
C          0.74430       -0.63600       -1.18230
C          1.48690       -1.87650       -0.61740
O          2.75000       -2.12800       -1.22110
C          1.55080       -1.58300        0.86450
C          0.78500       -0.54830        1.20430
H          1.09150        1.95950       -0.05180
H         -0.45990        1.95440       -0.90640
H         -0.42520        2.00860        0.86130
H         -1.00350       -0.27360        0.06840
H          0.05520       -0.88630       -1.99270
H          1.49850        0.04220       -1.60110
H          0.92020       -2.79780       -0.80510
H          3.32000       -1.37980       -1.01010
H          2.14390       -2.19190        1.53820
H          0.65230       -0.16950        2.21330
