14
gdb 2999	5.08249	1.92729	1.5496	2.5116	54.86	-0.2484	0.0172	0.2656	794.2341	0.113102	-361.720206	-361.712809	-361.711865	-361.752122	25.275
C         -0.04870        1.43840        0.18540
N         -0.40550        0.08660        0.56260
C         -1.09300       -0.74640       -0.25930
O         -1.46270       -0.48050       -1.38950
C         -1.36270       -2.10780        0.34030
C         -0.25030       -2.99760        0.71300
O         -1.00700       -2.31210        1.71230
H          1.03090        1.60200        0.27210
H         -0.35020        1.57860       -0.85360
H         -0.56490        2.17800        0.80790
H         -0.25100       -0.24060        1.50440
H         -2.30500       -2.54800        0.02330
H         -0.39390       -4.07560        0.67760
H          0.77290       -2.65090        0.58230
