14
gdb 12998	2.8183	2.7262	1.65721	3.2482	57.28	-0.2619	0.0005	0.2624	765.825	0.1077	-419.702062	-419.69532	-419.694376	-419.732806	25.602
O         -0.03000        1.41090       -0.02620
C         -0.05740        0.03150       -0.01160
C         -0.41140       -0.77850       -1.23980
C         -1.29370       -0.82690       -0.01500
C         -0.99570       -1.96360        0.94750
O          0.39910       -1.83910        1.31670
C          0.89310       -0.63810        0.93040
O          1.93280       -0.18130        1.32010
H          0.85330        1.65750        0.28370
H         -0.77770       -0.18270       -2.06830
H          0.17860       -1.64810       -1.51520
H         -2.28890       -0.40280       -0.04640
H         -1.59260       -1.89620        1.86270
H         -1.12930       -2.95570        0.50660
