17
gdb 3461	5.19819	2.45973	2.43226	0.2731	68.11	-0.2213	0.0199	0.2412	659.7376	0.150186	-272.54938	-272.543448	-272.542503	-272.578603	24.375
C         -0.17370        1.54270        0.00100
C          0.02380        0.03240        0.02800
C          1.17840       -0.60280       -0.84670
C          2.15100       -0.20470        0.31580
C          0.90460       -0.60240        1.17830
C          0.78470       -2.08530        0.80600
C          0.96410       -2.08560       -0.51910
H          0.75370        2.10750        0.12610
H         -0.62280        1.85070       -0.95010
H         -0.85890        1.85110        0.79890
H         -0.94280       -0.46390       -0.10260
H          1.35180       -0.31180       -1.88330
H          3.05130       -0.81120        0.43760
H          2.40140        0.85810        0.34940
H          0.79640       -0.31100        2.22360
H          0.58730       -2.90360        1.48400
H          0.95410       -2.90420       -1.22470
