15
gdb 2312	7.31097	1.3971	1.27631	4.6702	61.94	-0.2641	0.0376	0.3017	926.7937	0.125251	-304.691526	-304.684063	-304.683119	-304.723547	26.22
C          0.03070        1.54640       -0.19090
C         -0.00340        0.05670        0.05600
N          1.27300       -0.67350       -0.00730
C          0.54550       -0.61990        1.26410
C          1.22520        0.12580        2.40400
C          2.11750       -0.74780        3.16680
N          2.80670       -1.45510        3.76670
H          0.93180        2.00450        0.22270
H          0.02390        1.75100       -1.26640
H         -0.84490        2.03560        0.24940
H         -0.87160       -0.43990       -0.37700
H          1.16670       -1.58000       -0.45260
H          0.02680       -1.51990        1.58880
H          1.80910        0.96140        2.00980
H          0.47550        0.53900        3.08930
