17
gdb 13266	8.76821	0.82459	0.79401	2.7444	69.93	-0.2538	0.0202	0.274	1435.4256	0.140623	-400.962947	-400.954383	-400.953438	-400.997817	29.065
C          0.07170        1.45350        0.00030
N         -0.02160        0.00890        0.01740
C          0.54870       -0.61950       -0.90750
O          0.47720       -1.96890       -0.96940
C          1.24350       -2.62360       -1.95590
C          2.42570       -3.48620       -1.46400
O          1.89760       -4.64160       -2.14730
C          0.65620       -3.96300       -2.43100
H          0.65780        1.85650       -0.84210
H         -0.93430        1.88590       -0.04380
H          0.52680        1.80250        0.93410
H          1.12370       -0.15920       -1.72700
H          1.50230       -1.93460       -2.76640
H          3.42880       -3.21970       -1.81470
H          2.43180       -3.60840       -0.37330
H         -0.16720       -4.30730       -1.79270
H          0.36860       -4.04460       -3.48440
