16
gdb 14508	4.23214	1.83066	1.50462	2.355	66.13	-0.2604	-0.0419	0.2185	845.8051	0.130808	-383.693861	-383.687128	-383.686184	-383.724611	26.698
O          0.03070        1.39530       -0.00540
C          0.01820        0.00490       -0.00850
C          1.01080       -0.49010       -1.03000
O          1.66300        0.28940       -1.69040
C         -0.04320       -0.70930        1.39820
C         -1.48260       -0.11880        1.52470
C         -1.39480       -0.69480        0.07660
C         -0.70260       -1.93500        0.70700
H          0.68630        1.64770       -0.67580
H          1.13180       -1.57770       -1.16500
H          0.74600       -0.70950        2.15100
H         -2.15340       -0.64980        2.20490
H         -1.56590        0.96120        1.62180
H         -2.16500       -0.67820       -0.69560
H         -0.09340       -2.58310        0.07690
H         -1.34390       -2.53400        1.35630
