13
gdb 21648	5.69866	1.60028	1.25138	4.4802	64.63	-0.2119	-0.056	0.1559	891.2398	0.098447	-394.822553	-394.81602	-394.815076	-394.85305	25.203
N         -0.03530        1.38960        0.14820
C         -0.00670        0.00140        0.03630
N         -1.14230       -0.63780        0.01750
N         -1.07200       -1.98900        0.00740
C          0.04990       -2.80710       -0.02680
O         -0.04510       -4.02420       -0.05350
C          1.28850       -2.03300       -0.02310
C          1.25920       -0.68340        0.01530
H          0.66960        1.87010       -0.39330
H         -0.95840        1.76990       -0.01510
H         -1.96820       -2.45610        0.00550
H          2.21300       -2.59740       -0.04310
H          2.17430       -0.09890        0.03840
