18
gdb 10495	2.81104	1.34959	1.0207	1.8313	77.87	-0.236	0.0483	0.2843	1205.8362	0.151923	-347.765835	-347.756437	-347.755492	-347.801129	32.993
C          0.01910        1.46790       -0.03380
C          0.01590        0.01150       -0.02440
C         -0.01390       -1.19440       -0.00580
C          0.02300       -2.63450       -0.02410
C          1.05810       -3.20580       -0.98620
O          2.37730       -2.80660       -0.67070
C         -0.23900       -3.38490        1.27100
C         -1.26720       -3.41260        0.17630
H          0.70680        1.87520        0.71580
H          0.32370        1.85900       -1.01090
H         -0.97880        1.86560        0.18200
H          1.04500       -4.29940       -0.92950
H          0.78900       -2.92020       -2.01560
H          2.37060       -1.84340       -0.61820
H          0.35510       -4.27470        1.44830
H         -0.44990       -2.79670        2.15590
H         -2.17820       -2.84160        0.30980
H         -1.38660       -4.32530       -0.39860
