20
gdb 14276	2.80149	2.51229	1.76325	1.555	73.2	-0.2379	0.0798	0.3177	838.1026	0.18083	-349.008921	-349.002282	-349.001338	-349.039234	27.557
C         -0.01760        1.63850        0.11880
C          1.49430        1.37270       -0.05000
C          2.32230        1.33680        1.24060
C          2.03410        0.11420        2.13350
C          0.55030       -0.14320        2.45180
C         -0.27930       -0.68240        1.27050
C         -0.14180        0.10830       -0.02790
O          1.21630        0.03530       -0.54430
H         -0.35630        2.09460        1.05050
H         -0.44520        2.17980       -0.72690
H          1.99500        1.97720       -0.81420
H          3.38920        1.33600        0.98740
H          2.13720        2.26910        1.79190
H          2.44850       -0.77560        1.64720
H          2.58390        0.24300        3.07310
H          0.48660       -0.87170        3.26850
H          0.09430        0.77630        2.84210
H          0.02440       -1.71440        1.05210
H         -1.33960       -0.72140        1.55390
H         -0.85880       -0.25230       -0.77410
