13
gdb 15026	2.53976	2.00189	1.17311	5.0958	63.17	-0.2866	-0.0258	0.2608	956.4206	0.095025	-357.615061	-357.607451	-357.606507	-357.647555	26.484
N         -0.26390       -1.03020        0.11410
C         -0.08330        0.10750        0.05040
C          0.09970        1.57010       -0.00360
C          1.53320        1.91530       -0.04250
N          2.64520        2.22240       -0.05250
N         -0.57490        2.11290       -1.18220
C         -2.00150        2.39970       -1.00480
C         -1.01040        3.50740       -1.06200
H         -0.30200        1.97800        0.94350
H         -2.62210        2.16410       -1.86240
H         -2.45220        2.17820       -0.03950
H         -0.79170        4.03430       -0.13540
H         -0.89040        4.09990       -1.96250
