16
gdb 16209	3.0726	2.24031	1.47725	3.5891	64.69	-0.2389	-0.0329	0.2059	854.5549	0.130888	-383.75103	-383.744021	-383.743076	-383.78239	26.598
O          0.07350        0.01330       -0.11820
C          0.01510        1.21180       -0.02700
C         -1.23850        2.08220        0.02930
C         -0.74590        3.43910        0.56970
C          0.70030        3.56960        0.03570
C          1.21580        2.14350        0.06790
C          2.43070        1.67820        0.76530
O          2.38720        1.77300       -0.65220
H         -1.60910        2.18400       -1.00000
H         -2.03110        1.60770        0.61140
H         -1.37940        4.27470        0.26520
H         -0.73620        3.41970        1.66510
H          0.69280        3.91900       -1.00400
H          1.31190        4.26600        0.61350
H          3.05630        2.41310        1.27090
H          2.45420        0.66440        1.16080
