14
gdb 11227	4.92066	1.41589	1.19165	6.1499	63.64	-0.2357	0.0246	0.2604	965.1823	0.110225	-374.932397	-374.925164	-374.92422	-374.964258	26.557
N          0.07900        1.35810        0.13690
C         -0.01370       -0.00820        0.02560
N         -1.10460       -0.67350        0.15330
C         -0.73330       -2.08870        0.03840
C          0.83550       -2.13200        0.02150
N          1.15740       -0.72210       -0.23500
C         -1.29600       -2.90080        1.12600
N         -1.71420       -3.56030        1.97760
H          0.74920        1.79720       -0.47760
H         -0.82230        1.81370        0.13580
H         -1.13130       -2.49430       -0.90170
H          1.23290       -2.47180        0.98390
H          1.22090       -2.78420       -0.76540
H          1.98950       -0.36870        0.21900
