16
gdb 11733	4.58692	1.47635	1.28561	4.4198	65.3	-0.2722	0.0044	0.2766	971.606	0.129858	-383.747628	-383.740146	-383.739202	-383.77957	27.823
C         -0.01090        1.51170        0.11440
C         -0.03240       -0.00610       -0.11500
C         -1.40410       -0.58250        0.01660
C         -2.14560       -1.02730        1.22250
C         -1.95320       -1.99200        0.03590
C         -2.83420       -1.50900       -1.08160
O         -3.61020       -1.95730       -1.86020
O         -2.39290       -0.19250       -0.99540
H          1.00150        1.90570       -0.00980
H         -0.66490        2.01860       -0.60050
H         -0.35320        1.76330        1.12300
H          0.35350       -0.24040       -1.11380
H          0.62070       -0.50950        0.60710
H         -1.54570       -1.28340        2.09120
H         -3.12910       -0.62380        1.44010
H         -1.47720       -2.95740        0.12600
