13
gdb 21608	3.94683	2.02262	1.33902	3.4743	66.39	-0.2229	-0.0457	0.1772	845.4847	0.098412	-390.972789	-390.966169	-390.965225	-391.003392	25.445
N         -0.01640        1.34240        0.16610
C          0.03080       -0.02360        0.05440
N         -1.15510       -0.68870        0.05480
H         -2.03680       -0.20320        0.15490
C         -1.21960       -2.08280       -0.00440
N         -2.36780       -2.64470       -0.00670
C          0.12030       -2.66120       -0.03870
N          1.22050       -1.98240       -0.02400
N          1.20080       -0.61060        0.00190
H          0.88490        1.77010        0.00730
H         -0.78550        1.81960       -0.28010
H         -2.26460       -3.65730       -0.04560
H          0.20710       -3.74420       -0.07000
