24
gdb 6932	4.39584	0.92297	0.86859	0.0649	86.67	-0.2544	0.0883	0.3427	1486.347	0.221692	-314.275876	-314.2657	-314.264756	-314.31075	37.645
C         -0.18530        1.54120        0.04640
C         -0.17280        0.02050       -0.12760
C          0.92450       -0.46900       -1.08360
C          0.93370       -1.97640       -1.23870
C          0.03710       -2.67270       -2.24150
C          1.54000       -2.71510       -2.41510
C          2.16140       -1.95050       -3.56980
C          2.24150       -4.02750       -2.11410
H          0.77040        1.90290        0.44260
H         -0.35740        2.04890       -0.90950
H         -0.97280        1.85890        0.73710
H         -0.03830       -0.45950        0.85090
H         -1.14810       -0.31920       -0.49870
H          0.78650        0.01380       -2.05850
H          1.90160       -0.12820       -0.71240
H          1.04280       -2.49650       -0.28790
H         -0.48110       -3.57900       -1.94460
H         -0.53010       -2.04390       -2.92210
H          1.61780       -1.03200       -3.80380
H          3.20120       -1.67710       -3.35230
H          2.16810       -2.56700       -4.47660
H          2.22590       -4.69270       -2.98620
H          3.29170       -3.86280       -1.84370
H          1.76300       -4.55670       -1.28400
