14
gdb 21115	3.7795	2.10563	1.37587	0.018	60.61	-0.2422	-0.0223	0.2199	858.9819	0.107581	-412.046267	-412.038415	-412.037471	-412.079037	26.4
C          0.13300        1.41250       -0.09090
N          0.15010       -0.03000       -0.02130
N          0.19650       -0.81530       -1.12880
N          0.20070       -2.03270       -0.75690
N          0.15700       -2.06540        0.60050
C          0.14910       -3.30070        1.34880
C          0.12260       -0.78900        1.13690
O          0.08010       -0.43460        2.29750
H          1.03630        1.78560       -0.57990
H         -0.74630        1.76170       -0.63800
H          0.09460        1.77370        0.93820
H          1.05560       -3.87780        1.15000
H          0.11110       -3.02540        2.40420
H         -0.72700       -3.90140        1.09200
