14
gdb 18341	3.5881	2.28936	1.61882	3.4634	56.59	-0.2688	-0.0006	0.2683	767.1379	0.109078	-419.696357	-419.690156	-419.689211	-419.727057	22.973
O         -0.07150        0.01090        0.08690
C         -0.02780        1.20540        0.12450
O         -1.13120        1.96980        0.35770
C         -0.85340        3.37520        0.25380
C          0.66620        3.51710        0.22190
O          1.26160        3.54540        1.53600
C          1.96070        2.30280        1.29490
C          1.19530        2.09860       -0.03220
H         -1.31830        3.75500       -0.66300
H         -1.28600        3.88160        1.12020
H          1.01240        4.34470       -0.40440
H          3.03730        2.46190        1.16400
H          1.79140        1.56280        2.08320
H          1.76870        1.85120       -0.92320
