15
gdb 17988	3.9569	1.77625	1.51869	4.1048	64.41	-0.2596	0.02	0.2797	841.8859	0.120225	-362.638208	-362.63149	-362.630545	-362.669589	24.944
N         -0.37880       -1.12430       -0.56030
C         -0.23640       -0.00690       -0.29780
C         -0.02950        1.39010        0.04500
C         -0.06890        1.79020        1.56650
C          1.35830        2.37260        1.43610
O          2.37880        1.42800        1.79670
C          2.54080        1.00260        0.41970
C          1.42830        1.94990       -0.05840
H         -0.72290        1.99770       -0.54170
H         -0.85100        2.51850        1.78960
H         -0.13070        0.95840        2.26880
H          1.55170        3.37460        1.82590
H          3.53770        1.25760        0.04160
H          2.36630       -0.07090        0.28570
H          1.63920        2.61010       -0.89710
