18
gdb 9878	4.92013	0.99475	0.92712	5.305	72.76	-0.2573	0.0388	0.2961	1262.3914	0.153708	-343.982104	-343.973447	-343.972503	-344.015818	31.218
C          0.01780        1.59530       -0.29640
C         -0.06410        0.09340       -0.10620
C         -1.39140       -0.45010        0.39950
C         -1.63290       -0.09130        1.88160
C         -2.87460       -0.65900        2.39850
N         -3.86300       -1.11290        2.78950
C          0.77730       -0.77500       -0.97020
N          1.10170       -0.61290        0.46070
H          0.99260        1.88570       -0.70070
H         -0.75070        1.94780       -0.99310
H         -0.12160        2.13320        0.64830
H         -2.21430       -0.06830       -0.21490
H         -1.39480       -1.53920        0.30480
H         -0.79270       -0.46590        2.47640
H         -1.66990        0.99460        2.02240
H          0.43170       -1.76620       -1.25100
H          1.41780       -0.29630       -1.70650
H          1.88440        0.02850        0.56470
