20
gdb 7389	3.73593	1.00352	0.83493	1.352	67.72	-0.2508	0.0686	0.3194	1378.1195	0.173956	-423.267491	-423.257134	-423.25619	-423.302842	36.808
C          0.02210        1.53980       -0.01020
C         -0.00200        0.01440        0.03600
O          0.71410       -0.48910        1.16010
C         -1.43980       -0.54910       -0.00110
O         -2.15590       -0.03580       -1.12510
C         -1.46580       -2.07680        0.04150
C         -2.87360       -2.64590        0.15890
O         -2.77110       -4.06280        0.13910
H          1.05260        1.90410       -0.03050
H         -0.51140        1.91040       -0.88780
H         -0.47260        1.95700        0.87710
H          0.53690       -0.38440       -0.83550
H          0.38280       -0.03540        1.94320
H         -1.97900       -0.14980        0.87110
H         -1.78530       -0.44660       -1.91490
H         -0.99900       -2.47420       -0.87160
H         -0.85430       -2.42420        0.87860
H         -3.33700       -2.29280        1.09540
H         -3.49350       -2.27420       -0.66970
H         -3.66030       -4.42690        0.17430
