14
gdb 2191	4.0124	2.63389	1.84707	1.3941	54.81	-0.27	0.0136	0.2836	696.4122	0.112651	-361.710525	-361.703268	-361.702324	-361.741886	25.653
C         -0.25260        1.49280        0.04650
C          0.06560        0.01770        0.02770
O          1.28270       -0.28020       -0.76360
C          1.95260       -0.71460        0.35040
N          3.15100       -1.03210        0.54270
C          0.76130       -0.58830        1.27850
O          0.91890        0.26220        2.38380
H          0.57310        2.06320        0.47630
H         -0.44920        1.85040       -0.96810
H         -1.14330        1.67210        0.65650
H         -0.76270       -0.58030       -0.36140
H          3.71130       -0.94510       -0.30680
H          0.33850       -1.55670        1.57610
H          1.84010        0.19780        2.66120
