15
gdb 3471	5.19766	2.51052	2.45803	0.8502	56.03	-0.2304	0.0688	0.2991	614.6541	0.126921	-345.619567	-345.61389	-345.612945	-345.648645	22.801
O         -0.02760        1.40320        0.12550
C          0.03500        0.00120        0.02130
C         -1.37730       -0.61900       -0.21070
C         -1.21290       -0.19970       -1.70810
C          0.24930       -0.59880       -1.40370
O          0.18350       -2.00820       -1.14560
C         -0.99120       -2.09720       -0.29580
H          0.86710        1.74790        0.04150
H          0.64980       -0.44750        0.81370
H         -2.23630       -0.34130        0.39820
H         -1.73940       -0.77950       -2.46950
H         -1.34330        0.87090       -1.85190
H          1.10220       -0.37700       -2.04490
H         -0.71930       -2.53980        0.66940
H         -1.75510       -2.72240       -0.77290
