16
gdb 1886	5.46651	2.11473	1.68252	1.1078	61.96	-0.2397	0.0312	0.2709	778.6217	0.137115	-325.81005	-325.802785	-325.801841	-325.841588	25.863
C         -0.00370        1.50170        0.07130
C         -0.00660       -0.02340       -0.02520
C          0.85380       -0.58450       -1.19300
O          1.80120       -1.46100       -0.54780
C          1.53750       -1.37870        0.78830
C          2.43210       -2.20200        1.65030
N          0.58280       -0.63730        1.17800
H          1.02030        1.87960        0.16070
H         -0.46090        1.95040       -0.81730
H         -0.56390        1.82820        0.95130
H         -1.04510       -0.36650       -0.11100
H          0.28350       -1.16870       -1.92030
H          1.41100        0.19510       -1.72380
H          2.35470       -3.25870        1.37540
H          3.47580       -1.90530        1.50660
H          2.15440       -2.07440        2.69580
