16
gdb 18377	3.05799	2.6211	1.76074	1.5513	70.28	-0.2323	-0.0002	0.2321	774.8774	0.132641	-346.587182	-346.580851	-346.579907	-346.617241	25.547
C         -0.03410        1.49820        0.27710
C          1.30920        2.11660       -0.06270
C          2.47640        1.75980        0.48230
C          2.66780        0.72860        1.52370
O          1.62830        0.50690        2.47990
C          1.87550       -0.54800        1.54710
C          0.84960       -0.86150        0.53030
C          0.00280        0.01160       -0.02410
H         -0.27770        1.66870        1.32900
H         -0.81740        1.97340       -0.31840
H          1.31820        2.87300       -0.84310
H          3.39020        2.23180        0.13080
H          3.66760        0.68200        1.95550
H          2.36830       -1.41160        1.99380
H          0.82680       -1.89870        0.20640
H         -0.68370       -0.35260       -0.78400
