17
gdb 18873	3.28717	2.58308	2.19048	0.8497	66.6	-0.1945	0.0922	0.2867	721.9413	0.144016	-363.804419	-363.798159	-363.797215	-363.834391	25.413
C         -0.19510        1.52460       -0.01540
N          0.07670        0.09280       -0.03420
C          0.70170       -0.48810       -1.21640
C          2.21770       -0.31380       -1.18000
O          2.75500        0.71470       -0.37410
C          2.34700        0.44350        0.97440
C          1.15500       -0.49910        0.82360
C          1.57910       -1.39350       -0.36960
H          0.66970        2.15800       -0.25930
H         -0.98560        1.73210       -0.74500
H         -0.57930        1.80860        0.97050
H          0.13360       -0.69760       -2.11830
H          2.81030       -0.53120       -2.06110
H          3.16260       -0.03160        1.54200
H          2.09560        1.39480        1.45400
H          0.80060       -0.95370        1.75130
H          1.76250       -2.45790       -0.38600
