20
gdb 8460	3.69168	1.85673	1.62428	1.3411	74.88	-0.2325	0.093	0.3255	905.0254	0.177633	-349.000218	-348.992704	-348.991759	-349.031312	30.358
C         -0.09130        1.49560       -0.06370
C          0.08730       -0.00900        0.05940
O          0.96830       -0.52040       -0.97320
C          1.95740       -1.25120       -0.21340
C          2.95790       -1.89310       -1.13220
C          1.09050       -2.00660        0.83340
C          0.81870       -0.54440        1.30410
C          2.30560       -0.25800        0.92890
H          0.84630        2.03310        0.10110
H         -0.45330        1.74760       -1.06500
H         -0.82890        1.85180        0.66380
H         -0.89380       -0.49370       -0.04670
H          3.46710       -1.13390       -1.73410
H          3.70890       -2.44390       -0.55890
H          2.46060       -2.58920       -1.81480
H          0.24940       -2.59300        0.45340
H          1.68000       -2.58460        1.54760
H          0.39600       -0.30540        2.27940
H          3.00500       -0.67140        1.65810
H          2.60060        0.75330        0.64160
