12
gdb 21466	8.27785	1.24431	1.08171	3.2421	59.72	-0.2427	-0.0179	0.2248	997.4713	0.085371	-410.826177	-410.819368	-410.818423	-410.860838	23.354
N         -0.09510        1.29000        0.01010
C         -0.00820        0.03490        0.00270
O         -1.17220       -0.68490        0.00830
C         -1.10370       -2.03650        0.00030
C         -2.18520       -2.88660        0.00270
N         -1.59780       -4.10930       -0.00770
N         -0.26310       -4.03020       -0.01580
N          0.04270       -2.75720       -0.01090
H          0.83800        1.69780        0.00380
H          0.88520       -0.59020       -0.00890
H         -3.24820       -2.72640        0.01040
H         -2.03530       -5.01700       -0.00970
