20
gdb 12666	3.09878	1.79696	1.30347	2.7682	74.22	-0.2324	-0.0134	0.219	998.0659	0.177144	-349.050489	-349.042127	-349.041183	-349.08315	31.774
C         -0.25680        1.52360       -0.06890
C          0.05570        0.03030        0.00390
C          0.90640       -0.49740       -1.17600
C          1.36680       -1.88650       -0.71530
C          1.48570       -1.76770        0.80770
O          2.03390       -2.55540        1.53570
C          0.81630       -0.45810        1.26340
C          1.90170        0.49210        1.80220
H          0.65620        2.12730       -0.08670
H         -0.82150        1.75420       -0.97870
H         -0.85830        1.85150        0.78570
H         -0.89880       -0.51460       -0.02030
H          0.34530       -0.51450       -2.11430
H          1.77320        0.15690       -1.33190
H          0.60230       -2.64660       -0.92570
H          2.30080       -2.24580       -1.15370
H          0.13150       -0.68830        2.08650
H          2.61730        0.78170        1.02510
H          1.45950        1.40560        2.20860
H          2.45860       -0.00800        2.59890
