17
gdb 4338	3.80438	1.76944	1.22604	2.187	78.29	-0.2446	-0.0153	0.2293	994.1025	0.143085	-326.803951	-326.796023	-326.795079	-326.837712	28.328
C          0.13130        1.53070        0.02670
C          0.07640        0.02500        0.01010
C          0.04590       -0.69030       -1.18720
C         -0.03060       -2.08440       -1.17450
C         -0.06420       -2.88370       -2.45180
N         -0.07470       -2.78670       -0.03290
C         -0.04250       -2.10330        1.11190
C          0.03290       -0.71710        1.19080
H          0.72530        1.89870        0.86840
H          0.56100        1.92570       -0.89790
H         -0.87430        1.95620        0.12940
H          0.08360       -0.16280       -2.13560
H         -0.02740       -2.24120       -3.33490
H          0.78110       -3.57830       -2.48840
H         -0.97490       -3.48950       -2.49710
H         -0.07570       -2.69800        2.02260
H          0.05950       -0.22610        2.15840
