15
gdb 1547	6.26668	1.34602	1.18019	5.659	58.7	-0.2603	0.0201	0.2804	982.5598	0.125038	-341.829025	-341.82112	-341.820176	-341.861375	27.429
C         -0.20350        1.39940       -0.09130
N          0.00220       -0.04730       -0.06690
C          0.90370       -0.54290       -1.10040
C          0.69780       -2.07080       -1.20910
O         -0.66950       -2.37240       -1.34280
C          1.43790       -2.60680       -2.36160
N          2.05520       -3.00640       -3.25210
H          0.72650        1.98310       -0.00060
H         -0.68680        1.68060       -1.03220
H         -0.87000        1.68380        0.72730
H          0.34570       -0.32500        0.84780
H          0.61200       -0.08730       -2.05240
H          1.96690       -0.31220       -0.93010
H          1.12070       -2.54760       -0.30650
H         -1.10610       -1.67300       -0.82640
