17
gdb 11428	4.59577	1.35071	1.20771	4.6836	65.33	-0.238	0.0385	0.2765	1027.0657	0.142882	-401.035107	-401.027177	-401.026232	-401.067836	28.713
C          0.28220        1.03580       -0.31200
O         -0.08170       -0.27060        0.07040
C         -1.47610       -0.47400        0.19980
C         -2.16090       -0.70600       -1.17690
N         -2.11190       -2.14540       -1.32380
C         -1.87680       -2.84640       -0.17090
O         -1.85490       -4.05150       -0.06040
C         -1.67980       -1.80310        0.93320
H          1.37380        1.07210       -0.33120
H         -0.09140        1.30630       -1.31120
H         -0.08730        1.78450        0.40630
H         -1.92950        0.37930        0.72250
H         -3.19230       -0.32420       -1.17240
H         -1.61760       -0.19720       -1.97940
H         -2.34360       -2.62980       -2.17590
H         -0.82630       -2.05060        1.56490
H         -2.57810       -1.78790        1.55890
