17
gdb 4108	2.9404	1.8522	1.19536	1.1276	67.37	-0.2483	0.0035	0.2518	991.4155	0.141808	-400.964629	-400.956594	-400.95565	-400.997039	29.593
C         -0.23980        1.52200        0.05460
C          0.03360        0.02130        0.00370
C          0.93980       -0.45820       -1.14670
O          1.47200       -1.70670       -0.71950
C          1.74170       -1.60360        0.67150
C          0.79810       -0.53930        1.18370
N          0.65750       -0.11720        2.37260
O          1.50600       -0.81760        3.25260
H          0.69630        2.08770        0.09940
H         -0.79600        1.84810       -0.83000
H         -0.82470        1.77550        0.94190
H         -0.91810       -0.52340       -0.07000
H          0.40910       -0.62390       -2.08710
H          1.74620        0.27400       -1.32400
H          1.58030       -2.57760        1.14400
H          2.78480       -1.30700        0.86790
H          1.31180       -0.40290        4.09960
