17
gdb 12507	3.45058	1.92201	1.36199	2.3511	70.5	-0.2314	0.0014	0.2328	922.1224	0.143203	-363.864848	-363.857243	-363.856299	-363.896848	28.095
C          0.50030        1.44570        0.17070
C         -0.04610        0.06810       -0.07580
C          0.02590       -0.56310       -1.24820
C         -0.51110       -1.96010       -1.47900
N         -0.08270       -3.00730       -0.55430
C          0.13560       -2.85890        0.67810
O          0.00800       -1.80800        1.52930
C         -0.70420       -0.64040        1.08680
H          1.27030        1.43020        0.95290
H          0.94160        1.87060       -0.73440
H         -0.28450        2.12940        0.51980
H          0.49970       -0.07200       -2.09580
H         -1.61270       -1.94330       -1.50850
H         -0.20760       -2.29230       -2.47690
H          0.50980       -3.70780        1.25210
H         -0.74660       -0.00110        1.97120
H         -1.73250       -0.93260        0.83490
