18
gdb 6487	4.00593	1.33322	1.18481	3.2992	68.36	-0.2415	-0.0236	0.2179	1076.8845	0.151211	-384.950976	-384.942267	-384.941322	-384.984562	32.145
C          2.33800        0.18280       -2.59650
C          1.88390       -1.07950       -1.89340
O          2.64340       -2.00910       -1.70790
C          0.43530       -1.11450       -1.41720
C         -0.05350       -2.51270       -1.09150
O          0.67970       -3.14890       -0.08680
C         -1.51910       -2.81200       -1.08850
C         -0.63800       -3.36880       -2.19230
H          1.84400        0.25500       -3.57280
H          2.04490        1.07140       -2.02730
H          3.41900        0.16600       -2.73940
H          0.38480       -0.48290       -0.51710
H         -0.20480       -0.62980       -2.16340
H          1.58820       -3.18290       -0.42200
H         -1.86120       -3.50350       -0.32730
H         -2.21800       -2.01840       -1.33140
H         -0.73730       -2.95610       -3.19120
H         -0.40430       -4.42620       -2.15600
