17
gdb 3586	4.62155	3.03741	2.43263	0.3157	65.87	-0.2409	0.0817	0.3226	627.5276	0.151376	-272.562906	-272.557364	-272.55642	-272.591766	23.299
C         -0.05810        1.47960        0.07140
C          1.30210        0.82860        0.03220
C          2.04230        0.52880        1.34160
C          1.22370       -0.53200        2.08780
C         -0.15450       -0.19350        2.59910
C         -0.00020       -0.86190        1.25370
C          0.04800       -0.02470       -0.01130
H         -0.40410        1.94710        0.98610
H         -0.37820        2.00030       -0.82560
H          1.90400        0.98430       -0.85700
H          3.03120        0.11930        1.10820
H          2.21060        1.42970        1.94420
H          1.77180       -1.30980        2.60910
H         -0.53960       -0.80330        3.41020
H         -0.46770        0.84270        2.65460
H         -0.35120       -1.88250        1.15070
H         -0.27200       -0.50640       -0.92830
