14
gdb 3680	3.63878	3.24223	1.75178	3.228	58.85	-0.2498	0.0001	0.2499	704.7065	0.113283	-324.586663	-324.579808	-324.578864	-324.617459	24.335
C          0.02340        1.52770        0.00690
C          0.00560        0.03240       -0.00470
C         -0.03180       -0.81980       -1.06020
O         -0.03590       -2.09750       -0.65060
N         -0.00010       -2.11670        0.74070
C          0.02450       -0.86020        1.11760
C          0.06660       -0.50830        2.56960
H          0.92320        1.91660        0.49710
H         -0.00050        1.93010       -1.00910
H         -0.83820        1.93700        0.54660
H         -0.05800       -0.66760       -2.12880
H          0.96370        0.07360        2.80740
H         -0.79960        0.10000        2.85200
H          0.06850       -1.41570        3.17620
