19
gdb 1247	6.35602	1.06785	0.97244	2.8513	69.1	-0.2475	-0.0181	0.2294	1207.8775	0.169116	-310.940611	-310.931655	-310.930711	-310.974733	31.088
C          0.02110        1.56000        0.05760
C          0.03890        0.02520        0.04400
C          0.80250       -0.51620        1.26020
C         -1.39960       -0.52030       -0.04200
C         -1.49650       -2.04130       -0.26100
C         -2.93360       -2.50520       -0.29490
O         -3.45200       -3.09750       -1.20590
H          1.03740        1.96650        0.07760
H         -0.48450        1.96250       -0.82630
H         -0.50410        1.93800        0.94300
H          0.57070       -0.29760       -0.86250
H          0.90270       -1.60540        1.23830
H          1.81290       -0.09710        1.30070
H          0.29390       -0.24440        2.19330
H         -1.94150       -0.24770        0.87490
H         -1.91940       -0.01530       -0.86580
H         -1.00940       -2.34500       -1.19260
H         -1.00620       -2.56750        0.56960
H         -3.51670       -2.24450        0.62110
