18
gdb 18712	3.18728	2.16947	1.49072	1.0769	72.37	-0.2262	0.0203	0.2465	870.369	0.155805	-347.80252	-347.79544	-347.794496	-347.833427	28.384
O         -0.14430        1.45570        0.19530
C         -0.01090        0.04430        0.03970
C          0.90430       -0.55300        1.12700
C          0.77760       -2.04960        1.25740
C         -0.34850       -2.69310        0.94410
C         -1.55820       -1.99290        0.44650
C         -2.15520       -0.86920        1.28510
C         -1.40160       -0.54620        0.02750
H          0.73230        1.84500        0.10970
H          0.43910       -0.18010       -0.94160
H          1.94400       -0.27480        0.91210
H          0.65600       -0.06100        2.07780
H          1.63080       -2.59690        1.64760
H         -0.41380       -3.77080        1.06660
H         -2.26070       -2.59990       -0.11500
H         -3.23220       -0.74250        1.27520
H         -1.68990       -0.66830        2.24340
H         -1.99950       -0.21730       -0.81680
