15
gdb 4433	3.52735	1.81309	1.21187	4.9204	64.81	-0.1762	0.0529	0.2291	950.1321	0.119893	-396.041859	-396.033672	-396.032728	-396.074053	29.861
C          0.04480        1.51360       -0.13080
C         -0.04460        0.03270       -0.02690
C         -1.10590       -0.80560       -0.07650
N         -2.47260       -0.60510       -0.32810
N         -0.63310       -2.10400        0.13140
C          0.75330       -2.12080        0.25930
O          1.48690       -3.08000        0.39970
N          1.08650       -0.77850        0.18470
H          0.60130        1.84000       -1.01930
H         -0.95520        1.95230       -0.19000
H          0.54260        1.95210        0.74350
H         -3.04480       -0.71240        0.50520
H         -2.64800        0.31090       -0.72050
H         -1.16680       -2.94150       -0.02350
H          2.04340       -0.47300        0.19080
