15
gdb 21944	6.98328	1.03425	0.9646	4.5081	62.85	-0.2529	0.0002	0.2531	1158.3738	0.120332	-395.973372	-395.965728	-395.964784	-396.006485	26.655
O         -0.09130        1.47070        0.06030
C          0.03040        0.06100        0.04140
C         -1.38490       -0.51080       -0.10400
C         -1.41110       -2.00310       -0.12180
C         -1.47290       -2.93400       -1.13500
N         -1.43410       -4.18730       -0.60220
N         -1.35090       -4.09570        0.69270
N         -1.33340       -2.78040        0.98980
H          0.79060        1.85230        0.09790
H          0.65140       -0.28710       -0.79760
H          0.49140       -0.31860        0.96780
H         -2.00170       -0.11900        0.71310
H         -1.81790       -0.13070       -1.03350
H         -1.54770       -2.77190       -2.19840
H         -1.28670       -2.49630        1.95580
