16
gdb 10433	2.53934	2.05416	1.45862	2.6889	61.18	-0.2516	-0.0423	0.2094	903.1618	0.127901	-420.84146	-420.833104	-420.83216	-420.874743	28.892
C          0.62500       -0.33030       -1.38410
O         -0.09470       -0.11980       -0.17960
C          0.53220       -0.63960        0.96300
C         -0.44830       -0.72900        2.16140
O         -0.20110       -2.13350        2.31720
C          0.62860       -2.17460        1.13770
C          1.79400        0.14230        1.29470
O          2.76830       -0.31700        1.83040
H          0.73710       -1.40010       -1.60800
H          0.04750        0.13950       -2.18230
H          1.62550        0.12490       -1.35550
H         -0.19330       -0.15630        3.06030
H         -1.47580       -0.50480        1.85040
H          0.16440       -2.74480        0.32440
H          1.63130       -2.55400        1.35470
H          1.72100        1.21930        1.01840
