19
gdb 19355	4.07137	1.62205	1.44579	1.6514	74.73	-0.2028	0.0793	0.2821	952.3681	0.165671	-327.842951	-327.835456	-327.834512	-327.874553	29.654
C          0.10320        1.52050       -0.16130
C         -0.07800        0.01210        0.05970
C          0.65940       -0.49600        1.26670
C          2.10910       -0.90710        1.27830
C          1.05130       -1.91670        1.65640
C          0.48340       -1.66500        3.08260
N          1.20980       -0.52470        3.70180
C          0.11890       -0.28390        2.72170
H          1.15760        1.76790       -0.32010
H         -0.46300        1.86440       -1.03270
H         -0.24170        2.09190        0.70730
H         -1.14840       -0.21690        0.15920
H          0.26870       -0.53510       -0.82590
H          2.53360       -1.06100        0.29020
H          2.79550       -0.52650        2.02370
H          0.88780       -2.83370        1.10440
H         -0.03930       -2.39160        3.69090
H          0.80940       -0.38810        4.62980
H         -0.75220        0.30470        2.98180
