11
gdb 23722	6.01545	1.56246	1.2403	1.561	55.02	-0.2535	-0.0544	0.1991	849.1874	0.073761	-438.741151	-438.735329	-438.734384	-438.771199	22.026
O          0.08850        1.30980        0.11400
C          0.06750       -0.02910        0.05940
N          0.08830       -0.58950       -1.15350
C          0.06710       -1.92130       -1.18880
C          0.02580       -2.66630       -0.02160
F          0.00450       -3.99920       -0.05700
C          0.00720       -1.98200        1.18610
N          0.02800       -0.65270        1.23590
H          0.11640        1.62070       -0.80050
H          0.08310       -2.40700       -2.16110
H         -0.02520       -2.52420        2.12800
