9
gdb 21734	5.56602	2.297	1.62599	3.347	52.03	-0.2868	-0.0985	0.1883	666.7991	0.049232	-429.43786	-429.432586	-429.431642	-429.467197	19.437
O         -0.00760        1.28810        0.00900
C          1.23610        1.76660       -0.00020
C          2.08610        0.70330       -0.01410
N          3.38510        0.25490       -0.02890
N          3.45310       -0.96380       -0.03610
O          1.94950       -1.54580       -0.02480
C          1.24530       -0.44110       -0.01220
N         -0.03240       -0.14320        0.00160
H          1.34350        2.83940        0.00460
