19
gdb 7187	3.14931	1.24504	1.02327	2.8587	70.87	-0.2529	0.0221	0.275	1201.7022	0.1631	-402.185397	-402.17566	-402.174716	-402.22077	33.293
C          0.18640        0.69010        0.69170
O         -0.45640        0.25930       -0.49760
C         -1.53210       -0.62790       -0.30600
C         -1.12800       -2.10100       -0.17880
C         -0.17360       -2.55330       -1.27900
O         -0.51880       -2.27540        1.11390
C         -0.63700       -3.48080        1.69830
N         -0.02420       -3.72950        2.77370
H          0.90850        1.45490        0.39530
H         -0.53590        1.13670        1.39150
H          0.70580       -0.12630        1.20410
H         -2.12760       -0.34550        0.57550
H         -2.17020       -0.53420       -1.19310
H         -2.05380       -2.69570       -0.21060
H          0.10860       -3.60110       -1.14310
H         -0.64890       -2.44980       -2.25960
H          0.72800       -1.93780       -1.26840
H         -1.30850       -4.16380        1.15750
H         -0.24780       -4.67080        3.08970
