16
gdb 16108	4.46814	1.63766	1.44274	1.0112	70.98	-0.2274	0.0485	0.2759	891.2049	0.130809	-346.558188	-346.551118	-346.550174	-346.589158	27.743
C         -0.07690       -1.20910       -0.31290
C         -0.02960       -0.02200       -0.11960
C          0.01870        1.38680        0.11480
C          0.36350        2.34650       -1.03140
C          1.31380        2.18700        0.11780
O          1.30440        3.12240        1.15360
C         -0.04920        3.30530        1.57520
C         -0.79370        1.98900        1.26260
H         -0.11630       -2.25610       -0.48350
H          0.64360        1.88260       -1.96990
H         -0.21060        3.26150       -1.13110
H          2.28500        1.72820       -0.01930
H         -0.03580        3.55480        2.63900
H         -0.50150        4.14860        1.03600
H         -1.84230        2.16420        1.00680
H         -0.76120        1.30220        2.11310
