17
gdb 6999	2.59281	2.06121	1.56641	1.7395	65.55	-0.2647	0.0213	0.286	898.1997	0.140112	-401.005625	-400.99695	-400.996006	-401.038399	31.787
C         -0.36760        1.47760       -0.05070
C          0.12230        0.05040       -0.00180
O          1.39450       -0.12430       -0.73490
C          1.99830       -0.69570        0.35510
N          3.13310       -1.20660        0.51370
C          0.79300       -0.53860        1.27330
C          0.98910        0.35550        2.48800
O          0.18940       -1.77050        1.62210
H          0.38660        2.17680        0.31890
H         -0.61360        1.75420       -1.08010
H         -1.27330        1.58530        0.55490
H         -0.61680       -0.64960       -0.40000
H          3.68380       -1.18880       -0.34650
H          1.41990        1.32440        2.22180
H          0.03330        0.51580        2.99530
H          1.67670       -0.13050        3.18730
H          0.87180       -2.31780        2.02850
