18
gdb 311	7.8794	2.19453	2.00483	0.1412	64.11	-0.2832	0.0906	0.3739	708.7554	0.166237	-235.700285	-235.693375	-235.69243	-235.730474	25.93
C         -0.08930        1.58670        0.01470
C          0.04900        0.07250        0.01780
C          1.11940       -0.59450       -0.89170
C          1.40030       -1.61790        0.24490
C          2.83010       -2.06510        0.50510
C          0.72280       -0.62630        1.23250
H          0.87700        2.06910        0.20220
H         -0.46170        1.95200       -0.94930
H         -0.78620        1.92590        0.78970
H         -0.92770       -0.38840       -0.17140
H          0.80490       -0.97690       -1.86670
H          1.97780        0.07160       -1.04090
H          0.75680       -2.49550        0.11160
H          3.49220       -1.20220        0.64160
H          2.89760       -2.68220        1.40840
H          3.22230       -2.65610       -0.33060
H          1.46600        0.03070        1.70060
H          0.07980       -1.03500        2.01700
