21
gdb 17682	3.98457	1.34117	1.29575	1.0904	79.45	-0.2181	0.0845	0.3026	1083.0397	0.18768	-329.082968	-329.074147	-329.073203	-329.116028	33.571
C         -0.19410        1.42350       -0.12280
N          0.05100        0.00490        0.07930
C          1.40390       -0.49840       -0.12740
C          0.80750       -0.47650        1.24670
C          1.36150        0.50870        2.25990
C          0.25700       -1.77260        1.78720
C          1.00330       -2.62460        2.78490
C         -0.27280       -1.93030        3.19210
H          0.66140        2.07960        0.10080
H         -0.46820        1.58270       -1.17110
H         -1.03980        1.74010        0.49670
H          1.48990       -1.42970       -0.68330
H          2.19180        0.22560       -0.33810
H          1.88100        1.33990        1.78020
H          0.56560        0.92490        2.88710
H          2.08280        0.01930        2.92180
H         -0.28920       -2.31660        1.02290
H          0.99000       -3.70010        2.64610
H          1.93500       -2.24790        3.19400
H         -0.19120       -1.09270        3.87590
H         -1.16710       -2.52700        3.33400
