14
gdb 5139	5.80918	1.35077	1.1419	2.466	67.92	-0.2158	0.0227	0.2386	988.0306	0.109366	-341.637234	-341.630196	-341.629252	-341.669419	25.664
N         -0.19350       -0.84080       -1.05780
C         -0.10010        0.11870       -0.42050
C          0.04680        1.36570        0.33540
C          1.43330        1.93850        0.24580
C          2.17190        2.63150        1.17800
C          3.39760        3.00510        0.55980
C          3.37050        2.52440       -0.72780
N          2.17030        1.88640       -0.91190
H         -0.71220        2.06820       -0.03810
H         -0.19940        1.17560        1.38480
H          1.86190        2.84970        2.18880
H          4.20520        3.55940        1.01200
H          4.09940        2.57160       -1.52050
H          1.90070        1.37840       -1.73800
