15
gdb 5909	4.01498	1.29731	1.23789	0.6923	65.42	-0.2805	-0.0055	0.275	999.079	0.117983	-358.866376	-358.85767	-358.856725	-358.89938	31.139
C          0.05270        1.56780       -0.00340
C          0.02840        0.02860        0.03550
N          0.79540       -0.42420        1.19280
C         -1.45350       -0.50050        0.00180
C         -2.17490       -0.10900        1.20780
N         -2.70630        0.21270        2.18250
C          0.68110       -0.50140       -1.17910
N          1.15610       -0.92930       -2.14090
H          1.08590        1.91770        0.00660
H         -0.44650        1.94690       -0.89820
H         -0.46260        1.96280        0.87700
H          0.37320       -0.06170        2.04330
H          0.79920       -1.43770        1.25860
H         -1.97800       -0.11930       -0.88060
H         -1.44750       -1.59290       -0.07120
