17
gdb 3267	3.41786	3.21034	1.7926	1.2578	65.92	-0.2414	0.0209	0.2622	727.907	0.15044	-309.718312	-309.711765	-309.71082	-309.748924	24.81
C         -0.01110        1.59780       -0.05850
C          1.48000        1.93000       -0.09740
O          2.07830        1.88550        1.18380
C          2.49270        0.61270        1.62450
C          1.42580       -0.42330        1.88640
C          0.26230       -0.62580        1.26730
C         -0.34390        0.10970        0.09830
H         -0.45130        2.16840        0.76740
H         -0.47580        1.96220       -0.98370
H          2.01370        1.26530       -0.79850
H          1.61690        2.95780       -0.45120
H          3.22800        0.18850        0.91320
H          3.03870        0.79900        2.55590
H          1.69970       -1.12500        2.67350
H         -0.32650       -1.47610        1.60820
H         -1.43410       -0.00050        0.14540
H         -0.04650       -0.41910       -0.82190
