15
gdb 4384	3.62614	1.93507	1.27173	4.4436	72.35	-0.2108	-0.034	0.1768	918.3309	0.121013	-362.746621	-362.739691	-362.738747	-362.777708	26.341
C         -0.01580        1.52070        0.05050
C         -0.00330        0.02520       -0.06370
C         -0.03640       -0.66280       -1.24210
C         -0.01940       -2.08560       -1.20710
C          0.02880       -2.77360       -0.03280
C          0.06530       -2.08580        1.24260
O          0.10920       -2.58440        2.35550
N          0.04490       -0.68020        1.10460
H          0.88240        1.88500        0.56290
H         -0.05600        1.98150       -0.93760
H         -0.88320        1.86550        0.62550
H         -0.07480       -0.12550       -2.18000
H         -0.04590       -2.63040       -2.14650
H          0.04200       -3.85560        0.00580
H          0.07000       -0.18850        1.98840
