14
gdb 16849	3.93681	2.0407	1.53333	3.5623	63.57	-0.2471	-0.0656	0.1815	799.9109	0.108194	-382.551624	-382.545312	-382.544367	-382.582245	24.186
O         -0.04190        0.42490        1.02520
C         -0.03080        1.27590        0.16050
C         -1.32560        1.70770       -0.53390
C         -1.28340        3.07090       -1.17810
O         -0.81050        4.14640       -0.37670
C          0.02100        3.69720       -1.46930
C          1.25840        2.97350       -1.09220
C          1.23210        1.88030       -0.31900
H         -1.53570        0.95660       -1.30790
H         -2.14110        1.63860        0.19250
H         -2.13110        3.32410       -1.81560
H          0.09910        4.41360       -2.28390
H          2.20290        3.37820       -1.44540
H          2.14060        1.38510        0.00790
