12
gdb 7244	4.98309	1.26138	1.00658	3.953	55.08	-0.2632	-0.0695	0.1937	1065.1661	0.082591	-451.849406	-451.841298	-451.840353	-451.88288	27.411
N         -0.04350        1.28220        0.00720
C          0.05950       -0.06690       -0.00000
O          1.08090       -0.71260       -0.01260
C         -1.34540       -0.71280        0.01020
O         -2.36910       -0.07800        0.02340
O         -1.25180       -2.05750        0.00240
C         -2.42470       -2.78670        0.01030
N         -2.32820       -4.03760        0.00290
H          0.79330        1.84030        0.00260
H         -0.95190        1.71500        0.01850
H         -3.31530       -2.15880        0.02280
H         -3.25670       -4.45800        0.01040
