18
gdb 15527	3.01424	1.86428	1.23176	0.5948	79.93	-0.2337	0.0258	0.2596	1002.2536	0.153276	-310.657529	-310.649354	-310.64841	-310.68992	30.878
C         -0.00610        1.50310       -0.00110
C          0.03870        0.01000       -0.03910
C         -0.00470       -0.78730       -1.10680
C         -0.00090       -2.25390       -0.75530
C          0.41370       -2.25030        0.73470
C          0.06660       -0.82070        1.24890
C          0.98200       -0.32750        2.27220
C          1.74440        0.07700        3.10990
H          0.86030        1.90840        0.53360
H         -0.02610        1.92790       -1.00810
H         -0.89530        1.85820        0.53650
H         -0.08320       -0.43130       -2.12910
H         -0.99910       -2.69210       -0.90000
H          0.68420       -2.84430       -1.37410
H         -0.07010       -3.03070        1.32640
H          1.49420       -2.39410        0.81800
H         -0.94760       -0.81560        1.68040
H          2.41470        0.43160        3.85310
