16
gdb 21072	3.45952	2.0283	1.30126	2.178	68.14	-0.1966	0.0417	0.2382	916.5246	0.132743	-376.111632	-376.103418	-376.102474	-376.143998	29.775
C         -0.06880        1.41440       -0.02290
N          0.00270       -0.02530        0.04120
N          0.12860       -0.76070       -1.10010
C          0.16460       -2.02070       -0.68280
C          0.08720       -2.11960        0.72540
N          0.09760       -3.22690        1.62370
C         -0.00910       -0.80250        1.15100
N         -0.18770       -0.30070        2.43980
H          0.90800        1.88330        0.15060
H         -0.41530        1.68680       -1.01990
H         -0.77650        1.77980        0.72670
H          0.25070       -2.82050       -1.40590
H         -0.71820       -3.81890        1.49920
H          0.91050       -3.81710        1.47770
H         -0.13510       -1.07560        3.09410
H          0.49470        0.40300        2.69960
