20
gdb 18708	3.13514	2.121	1.4694	0.3388	79.41	-0.2209	0.0256	0.2466	920.6628	0.179318	-311.878701	-311.871384	-311.87044	-311.90977	29.594
C          0.09930        1.57080        0.00480
C          0.03140        0.03850        0.00810
C          0.54370       -0.54470       -1.32800
C          0.76470       -2.03510       -1.28460
C          1.07430       -2.67880       -0.15730
C          1.22850       -1.98250        1.14280
C          2.21700       -0.82550        1.24930
C          0.73870       -0.55210        1.21850
H          1.13810        1.91360       -0.05880
H         -0.44650        1.99070       -0.84720
H         -0.33360        1.99060        0.91910
H         -1.02440       -0.25530        0.09790
H         -0.16820       -0.29030       -2.12230
H          1.47920       -0.03780       -1.61010
H          0.68700       -2.58230       -2.22000
H          1.23610       -3.75340       -0.16870
H          1.11750       -2.59940        2.02870
H          2.74270       -0.69090        2.18870
H          2.81360       -0.60950        0.36970
H          0.30010       -0.25340        2.16740
