11
gdb 240	9.27563	2.24606	1.83479	4.0954	45.3	-0.2723	-0.0251	0.2472	632.4706	0.083113	-322.460671	-322.454075	-322.45313	-322.491611	21.35
C         -0.09000        1.43640       -0.06710
C          0.15430       -0.03560        0.10480
N          0.53240       -0.67800        1.12400
O         -0.08210       -0.67830       -1.09360
C         -0.17010       -2.05040       -1.12490
O         -0.28900       -2.62260       -2.16230
H          0.12080        1.97720        0.85650
H          0.54320        1.82750       -0.86920
H         -1.12890        1.61200       -0.36290
H          0.65580       -0.05510        1.91890
H         -0.13030       -2.49900       -0.12530
