16
gdb 3224	4.93408	2.7773	2.35281	1.3658	63.88	-0.2164	0.0757	0.2921	639.859	0.137022	-288.555332	-288.549165	-288.548221	-288.584766	24.701
C          0.05040        1.50580        0.03100
C         -0.00060        0.01110        0.04230
C         -0.93990       -0.81410        0.87640
C          0.54960       -1.02930        0.99430
C          1.13690       -1.73650       -0.23820
C          0.16530       -2.07280       -1.29750
N          0.62540       -0.67380       -1.17450
H          1.05250        1.85750       -0.23380
H         -0.65070        1.91140       -0.70830
H         -0.21560        1.91370        1.01100
H         -1.35880       -0.25470        1.70810
H         -1.62040       -1.56430        0.48840
H          1.09220       -0.90130        1.92200
H          2.17580       -2.04850       -0.28250
H          0.56300       -2.54370       -2.19250
H         -0.85950       -2.34910       -1.07910
