15
gdb 5677	5.09669	2.18053	1.54188	1.8147	75.73	-0.1847	-0.0095	0.1751	785.9229	0.12255	-325.572534	-325.566734	-325.56579	-325.60217	23.542
C         -0.06180        1.45740        0.01050
C          1.39740        1.87340       -0.00120
C          2.18890        0.78580       -0.01470
C          1.36540       -0.40750       -0.01330
C          1.37870       -1.78860       -0.02070
C          0.01670       -2.20500       -0.01000
C         -0.78240       -1.07590        0.00380
N          0.04930        0.00760        0.00150
H         -0.59120        1.81600        0.90280
H         -0.60820        1.82570       -0.86750
H          1.70620        2.90880        0.00140
H          3.27010        0.78010       -0.02510
H          2.25040       -2.42410       -0.03250
H         -0.34290       -3.22300       -0.01200
H         -1.85560       -0.97020        0.01470
