12
gdb 21590	3.53417	2.324	1.40204	4.3611	64.91	-0.2381	-0.0685	0.1696	795.3921	0.083642	-410.810034	-410.802969	-410.802025	-410.841209	26.011
N          0.06950        1.30890       -0.13480
C         -0.01870       -0.01940       -0.01790
C         -1.17150       -0.73990        0.12020
N         -1.11750       -2.10450        0.23050
N         -0.15800       -2.82790        0.22590
O          1.26870       -2.05180        0.06460
C          1.29260       -0.73410       -0.04700
N          2.34160       -0.01340       -0.17820
H          1.00320        1.68580       -0.22950
H         -0.73840        1.90590       -0.13000
H         -2.16060       -0.30540        0.15090
H          3.18200       -0.59000       -0.18700
