20
gdb 6718	6.30961	0.67152	0.63447	3.4669	73.18	-0.2467	-0.0182	0.2285	1738.8044	0.173915	-386.15587	-386.145835	-386.144891	-386.191879	34.781
C         -0.00720        1.59030        0.00720
C         -0.00090        0.06290       -0.05040
O          0.86070       -0.48840        0.94490
C         -1.41360       -0.53070        0.04200
C         -1.43220       -2.05660       -0.08840
C         -2.83670       -2.65770        0.08810
C         -2.81160       -4.16800        0.04650
O         -3.46760       -4.85330       -0.69470
H          1.01450        1.97620       -0.04130
H         -0.58100        2.01730       -0.82160
H         -0.46260        1.94190        0.94200
H          0.45040       -0.25530       -0.99910
H          0.56890       -0.15180        1.79980
H         -1.85710       -0.23570        1.00540
H         -2.04390       -0.07940       -0.73510
H         -1.03760       -2.34180       -1.07220
H         -0.74560       -2.48070        0.65290
H         -3.23140       -2.36360        1.07250
H         -3.53420       -2.29890       -0.67490
H         -2.10670       -4.63060        0.77820
