22
gdb 10391	2.86655	1.63139	1.26429	1.9407	77.36	-0.2413	0.0726	0.3138	1084.5999	0.199291	-350.188989	-350.179547	-350.178603	-350.223859	34.175
C         -0.17260        1.48660       -0.21610
C          0.03250       -0.01570        0.01100
C          0.77620       -0.44170        1.29190
C          0.87170       -1.97610        1.32190
C          1.57990       -2.61880        2.51980
C          2.07830        0.35770        1.56590
O          1.45910        1.08750        2.64310
C          0.27730        0.26530        2.58070
H          0.77520        2.02830       -0.28380
H         -0.71020        1.65050       -1.15520
H         -0.76040        1.94950        0.58160
H         -0.94820       -0.51090        0.01070
H          0.57590       -0.43270       -0.84810
H         -0.14850       -2.37870        1.25740
H          1.37300       -2.30080        0.39970
H          2.62440       -2.30350        2.60130
H          1.08760       -2.38200        3.46780
H          1.57640       -3.70820        2.41490
H          2.92930       -0.24000        1.91660
H          2.42720        1.01970        0.76460
H         -0.63780        0.86250        2.49160
H          0.18480       -0.38070        3.46300
