18
gdb 18024	4.16498	1.52303	1.39549	2.619	66.93	-0.2444	0.0622	0.3066	949.2332	0.154714	-384.898742	-384.891318	-384.890374	-384.930858	28.168
O         -0.04060        1.31070       -0.44870
C          0.07030       -0.05610       -0.09340
C         -1.30460       -0.62730        0.19970
O         -2.17400       -0.48510       -0.96240
C         -2.56470       -1.87410       -0.89370
C         -1.73780       -2.78660       -1.82850
C         -0.74910       -3.07340       -0.65330
C         -1.57890       -2.14510        0.27860
H         -0.69360        1.34710       -1.15840
H          0.56270       -0.63230       -0.89050
H          0.70230       -0.10740        0.80050
H         -1.73920       -0.08070        1.04810
H         -3.65060       -1.99410       -0.85680
H         -2.27450       -3.67200       -2.17950
H         -1.32710       -2.25690       -2.69080
H         -0.77840       -4.11400       -0.32250
H          0.29680       -2.80410       -0.81280
H         -1.86910       -2.53620        1.25270
