6
gdb 176	10.97997	10.24035	5.29863	1.9641	28.86	-0.3379	-0.0815	0.2563	240.038	0.033459	-278.059333	-278.055942	-278.054997	-278.0854	10.694
O         -0.05930        1.26840        0.00950
N          1.19460        1.77180        0.00010
C          1.95900        0.72110       -0.01280
N          1.22700       -0.44790       -0.01220
N          0.01190       -0.12460        0.00130
H          3.03560        0.75520       -0.02300
