13
gdb 21934	5.05883	1.43858	1.14903	4.3077	56.08	-0.2208	0.01	0.2307	962.0047	0.097019	-431.954171	-431.946822	-431.945878	-431.986171	26.2
O          0.38430        0.29280        0.96400
C         -0.14530        0.24020       -0.35350
C         -1.49230       -0.39360       -0.26430
N         -2.51670       -0.08520       -0.99760
N         -3.48930       -0.97580       -0.59870
C         -3.09790       -1.82780        0.41600
O         -3.72420       -2.68320        1.00040
N         -1.76300       -1.43520        0.58620
H          1.30560        0.56240        0.90750
H         -0.26010        1.23160       -0.81040
H          0.50120       -0.36180       -1.01190
H         -4.41420       -0.92010       -0.98660
H         -1.16160       -1.76710        1.32040
