13
gdb 4269	3.93876	1.96551	1.32195	5.0586	62.3	-0.2476	-0.0415	0.2061	865.3742	0.096004	-398.656937	-398.650097	-398.649153	-398.68831	24.678
C         -0.02000        1.48630        0.08320
C         -0.00640       -0.00210       -0.05430
N         -0.10080       -0.60530       -1.17200
C         -0.08030       -2.02550       -1.22320
O         -0.16890       -2.61280       -2.27760
C          0.05390       -2.69480        0.07640
C          0.14560       -1.96170        1.18990
O          0.11970       -0.60410        1.17120
H          0.90420        1.83070        0.55810
H         -0.12080        1.93770       -0.90210
H         -0.85090        1.79930        0.72330
H          0.07670       -3.77590        0.11460
H          0.24730       -2.34180        2.19900
