15
gdb 2807	4.36438	2.14307	1.61533	3.698	52.99	-0.2467	0.0505	0.2972	761.6842	0.124523	-382.754967	-382.747549	-382.746605	-382.786836	26.192
O         -0.00520        1.31330       -0.32940
C          0.07470       -0.07830       -0.08150
C         -1.30890       -0.60690        0.27060
O         -2.23780       -0.31170       -0.81140
C         -2.36680       -1.71220       -1.14520
C         -1.56180       -2.12080        0.11130
O         -0.38860       -2.87660       -0.06230
H         -0.71750        1.42130       -0.97240
H          0.47650       -0.62470       -0.94610
H          0.76490       -0.22390        0.75540
H         -1.65650       -0.15260        1.20550
H         -3.41650       -2.02250       -1.19610
H         -1.85810       -1.96940       -2.08300
H         -2.19160       -2.53380        0.90810
H         -0.61970       -3.81000       -0.07030
