14
gdb 1327	4.96076	1.91479	1.70558	4.5946	58.65	-0.2794	0.0275	0.3069	753.5324	0.112066	-324.580268	-324.572915	-324.571971	-324.611244	26.907
C         -0.06740        1.56650       -0.05400
C          0.00330        0.05910       -0.00160
O         -1.17290       -0.60180       -0.37890
C          1.29670       -0.66160       -0.25220
C          0.68810       -0.65030        1.15300
C          1.31960        0.09330        2.20400
N          1.82990        0.70280        3.04510
H          0.84100        2.02560        0.34290
H         -0.19360        1.90420       -1.08940
H         -0.92020        1.92370        0.53010
H         -1.32320       -0.42770       -1.31520
H          1.25230       -1.60960       -0.77490
H          2.19780       -0.07950       -0.40710
H          0.20400       -1.56740        1.46910
