5
gdb 177	11.4029	10.6093	5.4959	0.6581	25.66	-0.3671	-0.1073	0.2598	226.0123	0.020349	-294.081616	-294.078226	-294.077281	-294.10766	10.401
O         -0.07920        1.25320        0.00950
N          1.21130        1.71310       -0.00020
N          1.97370        0.72390       -0.01300
N          1.19420       -0.44180       -0.01180
N         -0.01120       -0.11520        0.00160
