18
gdb 9280	4.28046	0.92526	0.82864	1.9928	65.48	-0.2617	-0.0332	0.2284	1369.681	0.150092	-422.069889	-422.06018	-422.059236	-422.105681	32.972
C         -0.04810        1.52050        0.20610
C         -0.03750       -0.00110        0.06210
C         -1.44690       -0.58900       -0.03740
O         -2.14000       -0.10480       -1.17070
O          0.61020       -0.42900       -1.14020
C          2.00240       -0.25670       -1.19200
C          2.53250       -1.04070       -2.38200
O          3.67340       -0.99350       -2.75570
H          0.96270        1.93700        0.21250
H         -0.61470        1.96870       -0.61340
H         -0.52680        1.80070        1.14960
H          0.47630       -0.45700        0.92490
H         -1.36950       -1.68680       -0.05270
H         -2.03170       -0.30190        0.84220
H         -1.57120       -0.28760       -1.92760
H          2.30500        0.79510       -1.30220
H          2.49340       -0.64200       -0.28160
H          1.76290       -1.67540       -2.87490
