8
gdb 21781	3.40092	2.58232	1.46781	1.1808	44.91	-0.3259	-0.1176	0.2083	716.3611	0.034056	-486.463105	-486.456886	-486.455942	-486.494201	21.261
O         -0.00760        0.01490        0.38710
C          0.02270        1.15400        0.06050
O         -1.14610        1.79800       -0.29220
N         -1.17180        3.14980       -0.68810
N         -0.15670        3.82810       -0.74070
O          1.10840        3.30440       -0.40890
C          1.28310        1.99630       -0.00430
O          2.36850        1.60250        0.26410
