18
gdb 10981	2.95352	2.45845	1.7667	1.6941	71.42	-0.2314	0.0051	0.2365	823.2794	0.153105	-347.766873	-347.75952	-347.758576	-347.797763	29.441
C         -0.11980        1.53240       -0.03420
C         -0.02350        0.01600       -0.02530
C          1.27360       -0.60520       -0.64650
O          1.97670       -0.24800        0.58550
C          0.70360       -0.63780        1.21780
C          0.53160       -0.20250        2.64530
C          0.63090       -2.13150        0.83390
C          1.02280       -2.10820       -0.44090
H          0.83420        1.98420        0.24710
H         -0.39620        1.89670       -1.02990
H         -0.88970        1.88050        0.66380
H         -0.96440       -0.45570       -0.32220
H          1.74440       -0.24060       -1.55910
H          0.58170        0.88570        2.73620
H         -0.43590       -0.53890        3.03230
H          1.31900       -0.63450        3.27100
H          0.31850       -2.94790        1.46920
H          1.12500       -2.89920       -1.16920
