15
gdb 4184	5.17557	1.44663	1.28621	1.2078	65.	-0.2464	-0.0034	0.243	933.9206	0.118602	-399.715016	-399.708014	-399.707069	-399.746464	26.284
O         -0.09950        1.36390        0.19260
N          0.05300       -0.03080        0.27230
C         -1.02530       -0.62250       -0.02790
C         -2.44730       -0.20880       -0.37820
C         -2.80230       -1.72010       -0.43390
O         -2.64370       -2.28210       -1.74830
C         -1.30440       -2.74050       -1.45140
C         -1.33430       -2.10210       -0.04300
H          0.77180        1.67980        0.45510
H         -2.93540        0.34610        0.43050
H         -2.58740        0.33290       -1.31670
H         -3.70520       -2.06680        0.07260
H         -1.25650       -3.83620       -1.43610
H         -0.55780       -2.35290       -2.15280
H         -1.02950       -2.71100        0.80650
