13
gdb 20736	3.55893	1.9268	1.25978	4.3922	66.35	-0.2608	-0.0204	0.2404	890.6405	0.097631	-357.692558	-357.685477	-357.684533	-357.724218	25.269
C         -0.03540        1.47690       -0.03220
C         -0.01120       -0.01470        0.02560
N         -0.03170       -0.75460       -1.07430
N          0.00030       -2.03470       -0.63850
C          0.04070       -2.14410        0.70080
C          0.03480       -0.84610        1.18730
C          0.06750       -0.43520        2.53940
N          0.09350       -0.07560        3.64060
H          0.85360        1.90440        0.44270
H         -0.07120        1.80590       -1.07200
H         -0.90720        1.87790        0.49500
H         -0.00790       -2.77890       -1.31570
H          0.06990       -3.09380        1.20990
