15
gdb 4582	5.60746	1.47574	1.16979	1.9277	72.49	-0.1836	0.0043	0.1879	970.1908	0.120973	-362.729084	-362.722039	-362.721095	-362.759822	27.893
N          0.00900        1.43380       -0.05770
C         -0.01210        0.02800       -0.04190
C         -1.22490       -0.67320       -0.02260
C         -1.25430       -2.06060       -0.07270
C         -0.06640       -2.78740       -0.14420
O         -0.15380       -4.15400       -0.18980
C          1.14670       -2.10220       -0.16350
C          1.17260       -0.71130       -0.11250
H          0.85740        1.83060        0.32260
H         -0.79750        1.85520        0.38260
H         -2.15910       -0.12140        0.02940
H         -2.19630       -2.59700       -0.05520
H          0.73480       -4.51930       -0.24130
H          2.08150       -2.65480       -0.21610
H          2.12730       -0.19380       -0.13200
