15
gdb 3494	7.06485	2.01166	1.91669	0.6381	67.65	-0.2535	0.0455	0.299	706.5503	0.125894	-271.296056	-271.290104	-271.28916	-271.32551	23.696
C         -0.07600       -1.24880       -0.09610
C         -0.02580       -0.04870       -0.02540
C          0.00720        1.39790        0.03150
C          0.07660        2.13060        1.41960
C          1.55500        1.65780        1.53240
C          1.38400        2.15410        0.06730
C          0.60600        3.37050        0.64460
H         -0.11660       -2.30810       -0.15560
H         -0.72030        1.82860       -0.66440
H         -0.69110        2.10630        2.19360
H          2.20640        2.25800        2.17260
H          1.72040        0.58880        1.67380
H          2.13180        2.15690       -0.72630
H         -0.09640        3.87390       -0.02570
H          1.19270        4.08680        1.22430
