17
gdb 3290	4.57025	2.5953	2.16176	1.6405	63.39	-0.2361	0.0824	0.3186	685.2513	0.149145	-309.689111	-309.682621	-309.681677	-309.719443	24.932
C          0.20880        1.52290       -0.14700
C          0.04680        0.03560        0.08760
O          0.83500       -0.77590       -0.82710
C          1.33710       -1.59170        0.25130
C          2.74230       -1.15620        0.72100
C          2.07960       -0.19540        1.75970
C          0.66900       -0.67250        1.31260
H          1.25350        1.83430       -0.06530
H         -0.14120        1.78060       -1.15170
H         -0.38600        2.09160        0.57620
H         -1.01580       -0.23380       -0.01140
H          1.12740       -2.65490        0.10300
H          3.32410       -1.96000        1.18090
H          3.33860       -0.69040       -0.06650
H          2.30380       -0.46180        2.79500
H          2.28810        0.87000        1.63760
H         -0.01690       -1.01190        2.08810
