16
gdb 12596	3.25826	2.13364	1.32121	3.1411	66.85	-0.2391	-0.0074	0.2317	906.1132	0.130688	-379.985283	-379.977346	-379.976401	-380.01747	28.446
C         -0.02260        1.47010        0.00100
N         -0.00050        0.02380        0.02920
C         -0.01800       -0.76040       -1.12200
O         -0.05290       -0.35010       -2.25830
C          0.01730       -2.18790       -0.57700
N          0.05270       -2.07670        0.88000
C          0.04060       -0.82350        1.14650
C          0.06720       -0.25280        2.52540
H          0.87450        1.89590        0.46220
H         -0.05550        1.76260       -1.05080
H         -0.90540        1.86960        0.51070
H         -0.86310       -2.74850       -0.91080
H          0.89590       -2.72220       -0.95560
H          0.09780       -1.07160        3.24400
H          0.94400        0.38760        2.67140
H         -0.82000        0.36090        2.71640
