15
gdb 10931	5.89078	1.37457	1.27207	5.4415	66.04	-0.2705	0.025	0.2955	957.6548	0.118231	-362.644784	-362.637406	-362.636462	-362.676386	27.266
C          0.07220        1.55410        0.01060
C         -0.07800        0.07390        0.12490
C         -1.36350       -0.76850        0.01860
C         -0.69180       -1.82770        0.97710
C         -0.53650       -3.19150        0.49580
N         -0.41670       -4.27690        0.11700
C          0.57100       -0.93480        0.98370
O          0.97900       -0.76500       -0.36960
H          1.08830        1.85550        0.27720
H         -0.12300        1.88340       -1.01600
H         -0.63410        2.06910        0.66940
H         -2.24230       -0.30960        0.47560
H         -1.60230       -1.11730       -0.98710
H         -1.18260       -1.83850        1.95380
H          1.32690       -0.86320        1.75710
