15
gdb 8095	2.93009	2.13668	1.56472	2.9357	63.34	-0.2517	0.0141	0.2658	845.8535	0.117839	-399.769728	-399.762315	-399.761371	-399.801086	28.215
C         -0.13990        1.45600        0.03980
C          0.09800       -0.01500        0.05510
O         -1.07620       -0.88110       -0.08280
C         -0.60320       -1.69590        0.96100
N         -1.17130       -2.63780        1.55770
C          0.69830       -0.99310        1.07850
C          1.27290       -0.82310       -0.34730
O          1.24280       -1.79050       -1.33450
H          0.79620        1.98980        0.22610
H         -0.52360        1.77390       -0.93560
H         -0.86570        1.74310        0.80660
H         -2.10750       -2.80450        1.18570
H          1.27710       -0.84400        1.97860
H          2.22550       -0.30000       -0.34260
H          0.31390       -1.98830       -1.51220
