12
gdb 21566	4.11059	1.91631	1.30894	8.2903	61.3	-0.2271	-0.0544	0.1727	843.4355	0.085062	-410.832668	-410.82589	-410.824946	-410.863628	25.303
N          0.05930        1.41400       -0.16490
C         -0.03570        0.04190       -0.05330
C         -1.18650       -0.68290       -0.01860
C         -1.12380       -2.12240        0.02100
O         -2.07300       -2.87490        0.05920
N          0.21250       -2.70940        0.02610
N          1.25140       -2.01060       -0.00360
N          1.14670       -0.64520       -0.03150
H          0.81980        1.85040        0.33810
H         -0.81530        1.89950       -0.02460
H         -2.15500       -0.19910       -0.01290
H          2.03640       -0.18690       -0.14910
