13
gdb 1074	7.48287	1.97168	1.57582	2.0241	55.16	-0.2147	0.0385	0.2532	734.8105	0.103636	-340.664407	-340.657874	-340.65693	-340.695448	23.088
O         -0.01310        1.42270        0.00860
C         -0.00160        0.00270        0.00220
C         -1.41640       -0.47700        0.01220
C         -2.56170        0.27340        0.02340
N         -3.59210       -0.64450        0.02910
C         -3.02950       -1.88450        0.02090
N         -1.71810       -1.82130        0.01060
H          0.89830        1.72710        0.00190
H          0.51370       -0.39350       -0.88780
H          0.52880       -0.40150        0.87960
H         -2.72920        1.33570        0.02790
H         -4.57530       -0.43300        0.03780
H         -3.62160       -2.78760        0.02300
