13
gdb 20386	4.89564	2.1174	1.5153	4.7871	60.25	-0.2135	-0.037	0.1765	768.5863	0.097957	-394.740159	-394.73418	-394.733235	-394.770258	22.624
C          0.01350        1.42930        0.05020
C          1.50630        1.91820       -0.05650
C          2.19670        0.60110        0.06690
C          1.32380       -0.42390       -0.06280
N          0.00080       -0.03050       -0.29920
N          2.02880       -1.58510       -0.04280
N          3.26200       -1.33600        0.09810
O          3.42600        0.13170        0.15500
H         -0.33830        1.58010        1.07840
H         -0.64590        1.98200       -0.62180
H          1.71070        2.38330       -1.02870
H          1.75490        2.64840        0.71780
H         -0.69710       -0.54830        0.22120
