14
gdb 12301	3.02448	2.44461	1.45822	5.171	61.78	-0.2616	-0.0366	0.2249	821.0453	0.108777	-415.865009	-415.858206	-415.857262	-415.896497	25.058
N          0.03190        1.10030        0.67850
C          0.00420       -0.00230        0.06470
O          1.12470       -0.53460       -0.51200
C          0.99950       -1.79870       -1.16420
C          0.12530       -2.70440       -0.33080
O         -1.18280       -2.13970       -0.23620
C         -1.28040       -0.78880       -0.04410
N         -2.39790       -0.20640        0.02980
H          0.97710        1.48980        0.64540
H          0.56950       -1.66840       -2.16590
H          2.01300       -2.19470       -1.26300
H          0.00290       -3.68620       -0.79440
H          0.55580       -2.83540        0.67070
H         -3.15090       -0.89290       -0.05830
