16
gdb 5256	7.37598	1.09931	0.97115	1.7048	67.29	-0.1976	0.0143	0.2119	1176.5301	0.131864	-379.948023	-379.940386	-379.939442	-379.980505	27.601
C         -0.05810        1.54150       -0.00370
C         -0.04520        0.02100        0.10680
N         -1.36770       -0.52820       -0.14390
C         -1.54350       -1.89250       -0.05670
C         -0.64070       -2.91330       -0.09120
O         -1.35580       -4.09500       -0.02620
C         -2.63550       -3.70540        0.05670
N         -2.82440       -2.42500        0.04610
H          0.94360        1.94700        0.16200
H         -0.40220        1.85640       -0.99300
H         -0.72390        1.98450        0.74580
H          0.64050       -0.39690       -0.64170
H          0.34380       -0.28600        1.09320
H         -2.12940       -0.01840        0.28230
H          0.42720       -2.99910       -0.16260
H         -3.38100       -4.48220        0.12640
