20
gdb 7169	6.23605	0.83355	0.77674	1.3949	78.27	-0.255	0.0545	0.3094	1486.5619	0.173708	-348.965572	-348.95549	-348.954546	-349.000758	35.484
C          0.00750        1.40570        0.02390
O          0.02770       -0.00020       -0.01570
C          0.65410       -0.57510        1.10880
C          0.65550       -2.09610        0.95400
C          1.42290       -2.53380       -0.29690
C          1.22480       -2.73920        2.24140
C          1.12390       -4.19330        2.25910
C          1.02510       -5.39140        2.26200
H          1.02430        1.82930        0.05020
H         -0.49570        1.75230       -0.88210
H         -0.54180        1.78280        0.90150
H          1.69060       -0.20200        1.20370
H          0.12120       -0.28440        2.03150
H         -0.38990       -2.41300        0.85460
H          1.38370       -3.61950       -0.41750
H          0.99910       -2.06310       -1.18620
H          2.47790       -2.23980       -0.22850
H          2.27800       -2.44710        2.35690
H          0.69860       -2.33410        3.11590
H          0.94390       -6.44990        2.27330
