16
gdb 10675	2.49156	2.29252	1.32444	2.022	66.67	-0.2512	-0.0286	0.2226	920.7208	0.127993	-383.763845	-383.755531	-383.754587	-383.797308	29.779
C         -0.23150        1.46420        0.12560
C          0.30100        0.06020       -0.02560
O          0.88190       -0.50010        0.88160
C          0.10970       -0.67230       -1.33600
C          1.23680       -1.66730       -1.69260
C         -0.04290       -2.20430       -1.20550
C         -0.58280       -0.08690       -2.51010
O         -1.07530        1.01160       -2.59180
H          0.20450        2.12490       -0.62900
H         -1.31020        1.48850       -0.05280
H          0.00200        1.81840        1.13040
H          1.48560       -1.76090       -2.74400
H          2.07210       -1.64250       -1.00380
H         -0.09100       -2.55030       -0.18040
H         -0.71720       -2.68550       -1.90560
H         -0.61880       -0.78790       -3.37810
