20
gdb 9505	2.74197	1.63683	1.51486	2.6792	75.39	-0.2434	-0.019	0.2244	990.1195	0.175235	-349.014257	-349.005309	-349.004365	-349.047662	32.973
C         -0.66110        1.21450       -0.03580
C          0.15740       -0.06550       -0.10030
C          1.54430       -0.05040       -0.79680
C          2.09200       -0.99350        0.30380
C          0.87580       -0.63950        1.20020
C          1.16480        0.40050        2.28310
C          0.11790       -1.80580        1.78230
O          0.33480       -2.96840        1.54690
H         -0.08990        2.04410        0.39250
H         -0.96880        1.51480       -1.04370
H         -1.57080        1.08820        0.56130
H         -0.45370       -0.86540       -0.53310
H          1.58140       -0.40370       -1.83000
H          2.00290        0.94270       -0.75720
H          2.06350       -2.04680        0.01760
H          3.07790       -0.76380        0.71510
H          1.65470        1.28460        1.86540
H          0.24760        0.73170        2.78270
H          1.83160       -0.01540        3.04640
H         -0.72620       -1.51280        2.45280
