16
gdb 11803	3.47117	1.83595	1.38102	4.0475	65.02	-0.2706	0.0107	0.2813	910.7197	0.12965	-383.755219	-383.747683	-383.746738	-383.786993	28.116
C         -0.22640        1.48300        0.00350
C         -0.03570       -0.02860       -0.00470
C          1.18690       -0.56110       -0.76540
O          1.62440       -0.52720       -1.86980
O          1.73760       -1.16930        0.33930
C          0.64950       -0.70490        1.18080
C          0.90380       -0.24840        2.57240
C          0.13650       -1.53950        2.29660
H          0.68340        1.99570        0.32830
H         -0.47680        1.83630       -1.00060
H         -1.04010        1.77020        0.67660
H         -0.95000       -0.54060       -0.32080
H          1.91640       -0.34180        2.94900
H          0.35780        0.61350        2.94170
H         -0.93310       -1.55890        2.47870
H          0.64920       -2.47430        2.49430
