13
gdb 16608	3.34822	2.34365	1.54145	5.9242	59.12	-0.2379	-0.0656	0.1723	780.0014	0.096968	-398.633151	-398.626835	-398.625891	-398.663645	24.126
O         -0.02080       -0.02890        0.15680
C         -0.02050        1.17040        0.03310
N         -1.10970        2.00470       -0.05490
C         -0.79120        3.40840       -0.01910
C         -0.13330        3.90680        1.23060
C          0.71430        3.50830        0.01400
C          1.22500        2.10540       -0.04040
O          2.35630        1.72360       -0.16110
H         -2.02600        1.65980        0.19000
H         -1.38960        4.05870       -0.64610
H         -0.15770        4.96950        1.44510
H         -0.13490        3.26040        2.10160
H          1.26100        4.28350       -0.50570
