15
gdb 8027	3.40644	1.99109	1.54659	3.5705	61.16	-0.2245	-0.0229	0.2015	827.0839	0.117987	-399.763364	-399.75608	-399.755136	-399.794824	27.611
O          0.09890        1.45500       -0.17290
C          0.02470        0.07440       -0.00430
C          0.38350       -0.85630       -1.18690
N         -0.79360       -1.69740       -0.85130
C         -1.37010       -0.64140        0.03310
C         -1.09170       -1.05150        1.49010
O         -1.73330       -1.55660        2.36160
C          0.35130       -0.49010        1.41610
H          0.99690        1.74220        0.02610
H          0.29500       -0.31270       -2.13620
H          1.34250       -1.38650       -1.15820
H         -1.38430       -1.95360       -1.63170
H         -2.31810       -0.18580       -0.25950
H          1.15080       -1.23180        1.48670
H          0.51780        0.29750        2.15810
