20
gdb 15771	4.45624	1.07878	0.94456	0.7767	80.98	-0.2556	0.0575	0.3131	1269.691	0.175169	-311.829209	-311.820066	-311.819122	-311.862996	34.099
C         -0.21620        1.42260        0.12470
C          0.03380       -0.08210       -0.03080
C          0.77710       -0.40520       -1.35310
C          0.03380       -0.03590       -2.55150
C         -0.60180        0.26660       -3.52640
C          0.80710       -0.64170        1.14890
C          0.09240       -1.02580        2.41840
C          0.68580       -2.09510        1.53230
H          0.73180        1.97070        0.18460
H         -0.77920        1.81790       -0.72510
H         -0.77810        1.62940        1.04030
H         -0.93770       -0.59280       -0.07170
H          1.74830        0.10890       -1.35190
H          1.00110       -1.47870       -1.38080
H         -1.15200        0.53170       -4.39470
H          1.79340       -0.19920        1.27840
H          0.57160       -0.81730        3.36840
H         -0.98870       -0.93020        2.43690
H         -0.00050       -2.71390        0.96230
H          1.57090       -2.61850        1.87660
