24
gdb 5890	4.02094	0.86305	0.84686	1.3507	82.29	-0.2598	0.0663	0.3261	1539.3206	0.220478	-351.424364	-351.413561	-351.412617	-351.459929	39.69
C         -0.17860        1.56790       -0.03950
C         -0.05550        0.04260        0.00880
C          0.77170       -0.45650        1.19880
C          0.89240       -1.98380        1.23680
C          1.57460       -2.56640        2.48840
C          1.55310       -4.10100        2.42320
C          3.01610       -2.06180        2.65590
O          0.77460       -2.12590        3.59510
H          0.80550        2.04280       -0.12360
H         -0.77930        1.89520       -0.89420
H         -0.65320        1.95450        0.86930
H         -1.05790       -0.40390        0.05270
H          0.39430       -0.31820       -0.92630
H          1.76860        0.00110        1.15280
H          0.31690       -0.11460        2.13510
H         -0.11350       -2.41950        1.18330
H          1.43350       -2.33860        0.35030
H          2.11700       -4.47410        1.56190
H          2.00170       -4.53320        3.32580
H          0.52360       -4.46260        2.34840
H          3.03830       -0.97810        2.79080
H          3.48150       -2.52160        3.53620
H          3.63200       -2.31780        1.78740
H          1.18340       -2.45490        4.40250
