15
gdb 18692	3.05653	2.66273	1.58954	5.2353	61.15	-0.2613	0.0276	0.2889	784.3229	0.121192	-399.814793	-399.808439	-399.807495	-399.845294	24.405
O         -0.13070        0.16090        0.64240
C         -0.06890        1.23130        0.10530
O         -1.18320        1.79730       -0.43250
C         -1.17530        3.18510       -0.80040
C         -0.28060        3.98690        0.14720
C          1.10800        3.40520        0.00150
C          1.76640        2.58440        1.06220
N          1.12600        1.94350       -0.08340
H         -0.82820        3.28710       -1.83660
H         -2.21980        3.50230       -0.75440
H         -0.30050        5.04870       -0.11260
H         -0.65730        3.88330        1.17050
H          1.74730        3.88580       -0.73660
H          2.84910        2.50910        1.09200
H          1.27080        2.49010        2.02480
