16
gdb 7051	6.27993	0.83911	0.76392	2.4314	76.4	-0.2506	0.0317	0.2824	1461.7268	0.126579	-346.540689	-346.530837	-346.529893	-346.57654	33.617
C         -0.03110        1.47790       -0.03360
C          0.01080        0.02300       -0.01300
C          0.05040       -1.18040        0.02590
C          0.06040       -2.64560        0.02310
O         -1.23640       -3.19120        0.21400
C          0.72550       -3.17710       -1.27780
C          0.84900       -4.62740       -1.29810
C          0.96240       -5.82360       -1.30100
H          0.83850        1.90410        0.47840
H         -0.03620        1.86430       -1.05860
H         -0.92850        1.85400        0.46940
H          0.64570       -3.01380        0.87330
H         -1.83040       -2.75080       -0.40430
H          0.13220       -2.83130       -2.13390
H          1.71280       -2.71050       -1.37800
H          1.05650       -6.88100       -1.30740
