22
gdb 6615	3.23919	1.55194	1.41385	1.5274	77.47	-0.2407	0.0771	0.3177	1034.3474	0.198724	-350.198604	-350.189293	-350.188349	-350.232148	34.895
C         -0.05190        1.56660       -0.02270
C         -0.03630        0.02850       -0.00280
C          0.80890       -0.45330        1.19220
C         -1.46960       -0.51820        0.11010
C          0.59940       -0.54300       -1.27950
C          0.12130       -0.09180       -2.68100
C          1.59680        0.29250       -2.90000
O          1.93160       -0.02800       -1.53450
H          0.95580        1.95960       -0.18100
H         -0.70230        1.96140       -0.81020
H         -0.42490        1.95500        0.93060
H          0.41110       -0.06140        2.13420
H          0.81230       -1.54710        1.25900
H          1.84530       -0.11850        1.09190
H         -2.09170       -0.19220       -0.73080
H         -1.47950       -1.61380        0.13160
H         -1.94550       -0.16440        1.03080
H          0.63400       -1.63940       -1.18560
H         -0.27460       -0.87840       -3.32480
H         -0.57110        0.75120       -2.68080
H          2.13960       -0.34330       -3.61160
H          1.80250        1.34300       -3.13600
