11
gdb 21865	3.45932	2.38952	1.41329	3.5313	59.24	-0.2545	-0.0851	0.1694	776.7355	0.071651	-430.669302	-430.662801	-430.661857	-430.700097	24.009
O         -0.09630        1.31190        0.18230
C          0.00390       -0.00830        0.03850
C          1.15760       -0.69740       -0.11640
N          1.16560       -2.07430       -0.25940
N          0.16410       -2.77760       -0.25950
O         -1.14810       -2.09520       -0.09380
C         -1.26890       -0.74350        0.05470
N         -2.38170       -0.15390        0.19640
H          0.78230        1.71350        0.16020
H          2.13360       -0.22790       -0.13860
H         -3.14740       -0.82960        0.18200
