18
gdb 13780	2.74347	1.53798	1.29788	2.8005	69.49	-0.2416	-0.0179	0.2237	1026.447	0.151615	-384.937187	-384.928192	-384.927247	-384.971203	32.172
C         -0.04670        1.04270        0.90240
C         -0.15590        0.33050       -0.44470
O          0.98160       -0.48930       -0.70240
C         -1.46480       -0.43660       -0.58380
C         -1.60940       -1.63000       -1.45920
C         -1.74810       -1.80640        0.04980
C         -0.72770       -2.59000        0.78390
O         -0.93090       -3.12950        1.84670
H          0.87590        1.62880        0.95150
H         -0.89100        1.72090        1.05790
H         -0.04950        0.31810        1.72560
H         -0.15630        1.08750       -1.24210
H          1.39110       -0.71260        0.13910
H         -2.32740        0.22450       -0.53620
H         -2.50060       -1.75020       -2.06420
H         -0.69650       -2.02110       -1.89600
H         -2.74470       -1.92990        0.46110
H          0.25540       -2.67760        0.27510
