18
gdb 8159	3.95338	1.7845	1.48665	1.074	67.83	-0.2391	0.094	0.3331	914.2321	0.152628	-384.9328	-384.92503	-384.924086	-384.964489	29.815
C          0.17930        1.51710        0.01860
C          0.09240        0.01030       -0.02270
O          0.84820       -0.50630       -1.11440
C          1.26720       -1.78730       -0.70980
C          2.51120       -1.82810        0.15550
C          1.12960       -1.84230        0.77880
C          0.59180       -2.98170        1.59630
O          0.65820       -0.55790        1.15160
H          1.22320        1.82410        0.11650
H         -0.23540        1.93890       -0.90040
H         -0.38950        1.89930        0.87000
H         -0.95480       -0.33010       -0.12050
H          1.00590       -2.59800       -1.38230
H          3.08380       -2.75060        0.16990
H          3.08470       -0.91210        0.23470
H          0.95940       -3.93820        1.21310
H          0.91020       -2.89150        2.64020
H         -0.50270       -2.99690        1.57390
