20
gdb 18158	3.46939	1.46698	1.28331	1.2194	74.81	-0.2474	0.0772	0.3246	1040.0882	0.177226	-348.966325	-348.957958	-348.957014	-348.999028	31.69
C          0.37810        1.70490       -0.65670
C          0.42100        0.21720       -0.36830
C          1.63590       -0.66250       -0.44770
C          2.87900        0.01920        0.14580
C          2.15420        0.09760        1.52970
C          2.09790        1.39540        2.31540
O          3.41150        1.65250        2.79900
C          0.88610       -0.48270        0.88720
H          1.32030        2.20830       -0.43140
H          0.16750        1.87580       -1.71860
H         -0.41140        2.19970       -0.07980
H         -0.45440       -0.29690       -0.76450
H          1.66590       -1.53710       -1.08700
H          3.75800       -0.62690        0.17190
H          3.17340        0.97070       -0.30830
H          2.59440       -0.65380        2.19350
H          1.73990        2.22500        1.69050
H          1.38110        1.28180        3.14650
H          3.40280        2.49610        3.26030
H          0.23170       -1.18820        1.38820
