10
gdb 4214	6.11303	2.84218	1.94013	3.4815	49.41	-0.269	-0.054	0.2149	581.0486	0.069183	-363.519194	-363.514378	-363.513434	-363.547867	17.709
F          0.00110        0.07470        0.00350
C         -0.01680        1.39270        0.01070
N         -1.21790        1.94390        0.02960
C         -1.22290        3.27950        0.03640
C         -0.05270        4.02980        0.02460
C          1.13750        3.31170        0.00490
N          1.16880        1.97650       -0.00230
H         -2.20040        3.75510        0.05200
H         -0.06740        5.11190        0.03030
H          2.10170        3.81390       -0.00550
