13
gdb 2463	6.64049	2.55135	2.12222	1.5272	54.01	-0.2181	0.0534	0.2715	615.3852	0.104048	-340.637231	-340.631628	-340.630684	-340.666236	22.139
N          0.04960        1.31110       -0.17910
C         -0.05260       -0.04610       -0.03800
N         -1.12760       -0.73940        0.01500
C         -0.69840       -2.11680        0.01670
C          0.06960       -2.59540       -1.20320
C          0.81660       -2.07850       -0.00520
O          1.15000       -0.69680       -0.01460
H          0.88840        1.71800        0.20690
H         -0.80000        1.80440        0.04910
H         -1.28950       -2.81460        0.59760
H          0.12270       -3.66680       -1.36570
H          0.03560       -1.98800       -2.10160
H          1.51120       -2.67370        0.57230
