16
gdb 19431	4.10598	2.00436	1.67196	2.1625	64.68	-0.236	0.0869	0.3229	805.1406	0.130942	-383.703077	-383.696579	-383.695635	-383.733575	25.678
C         -0.13060        1.47620        0.04110
C          1.24280        0.83280       -0.05260
C         -0.00980       -0.00830       -0.03360
O         -0.33830       -0.73640        1.13010
C         -0.36060       -2.12960        0.82060
C         -0.60850       -2.20870       -0.67190
O         -1.71220       -1.40540       -1.09870
C         -0.38750       -0.86110       -1.20100
H         -0.42380        1.88720        1.00030
H         -0.52010        2.00770       -0.82020
H          1.80230        0.92760       -0.97810
H          1.84580        0.81710        0.84810
H          0.59890       -2.61490        1.06030
H         -1.14950       -2.59100        1.42270
H         -0.42280       -3.12370       -1.22740
H         -0.02440       -0.64420       -2.20110
