20
gdb 8429	3.5844	1.67141	1.661	1.1932	73.44	-0.2555	0.0769	0.3324	910.6771	0.17775	-349.007726	-348.999977	-348.999032	-349.039086	31.364
C          0.54150        1.33440        0.01630
C         -0.05010       -0.07950       -0.01420
O         -1.47900        0.02650       -0.01400
C          0.45450       -0.91960       -1.23280
C          1.44490       -1.93990       -0.69790
C          2.61140       -1.44970        0.12470
C          1.36130       -1.94050        0.81330
C          0.32020       -0.92040        1.24050
H          1.63370        1.32650        0.06440
H          0.26080        1.88820       -0.88880
H          0.16200        1.88110        0.88480
H         -1.73030        0.61580       -0.73350
H         -0.41200       -1.43890       -1.65520
H          0.87500       -0.28420       -2.02180
H          1.57060       -2.86390       -1.25180
H          3.48270       -2.09460        0.17170
H          2.85490       -0.39260        0.13900
H          1.42480       -2.86490        1.37680
H          0.65190       -0.28350        2.06790
H         -0.58860       -1.43340        1.56920
