20
gdb 18281	2.84514	2.07575	1.80508	0.192	78.99	-0.2328	0.0362	0.2689	876.444	0.179279	-311.87601	-311.868507	-311.867562	-311.907455	29.512
C          0.16010        1.66230        0.08210
C          0.07730        0.15110        0.04120
C          1.24100       -0.73250       -0.35710
C          2.61480       -0.16230       -0.67610
C          3.35390        0.41160        0.50130
C          2.90820        0.40200        1.75540
C          1.59470       -0.18410        2.19450
C          0.73300       -0.74340        1.07250
H          1.13260        2.01740        0.43040
H         -0.01310        2.08880       -0.91270
H         -0.60400        2.07620        0.75010
H         -0.88920       -0.20910       -0.30490
H          0.97880       -1.59510       -0.96260
H          3.23270       -0.95850       -1.11490
H          2.54040        0.60110       -1.46530
H          4.32470        0.85140        0.28290
H          3.52150        0.83420        2.54320
H          1.80100       -0.98910        2.91410
H          1.03540        0.56900        2.77010
H          0.15160       -1.61270        1.36510
