14
gdb 457	7.64601	3.12341	2.31329	1.8189	55.75	-0.2252	0.0249	0.2501	566.4241	0.119949	-270.43928	-270.433217	-270.432273	-270.468829	21.372
C         -0.05570        1.49000        0.04230
C          0.01160       -0.00130       -0.01910
C         -0.04840       -0.80650       -1.07620
C          0.06240       -2.24060       -0.64780
O          0.19410       -2.19710        0.77220
C          0.16980       -0.84760        1.21990
H          0.85130        1.90930        0.49560
H         -0.17250        1.92770       -0.95200
H         -0.89670        1.82350        0.66320
H         -0.16070       -0.50390       -2.11060
H         -0.82430       -2.83520       -0.92150
H          0.93600       -2.74870       -1.08740
H          1.09990       -0.61410        1.76490
H         -0.66090       -0.70070        1.93050
