19
gdb 8139	4.1024	1.62563	1.35054	1.4392	77.83	-0.2202	0.0241	0.2443	988.8246	0.165738	-327.924293	-327.916455	-327.91551	-327.955872	30.581
C          0.04700        1.50270        0.07820
C         -0.02720        0.01120        0.00290
C         -0.13430       -0.74400       -1.09540
C         -0.09730       -2.20570       -0.77270
C         -0.84820       -3.20430       -1.61360
N          1.21170       -2.58550       -0.15500
C          0.04770       -2.27210        0.70810
C          0.05520       -0.85100        1.25520
H          1.00650        1.83000        0.49880
H         -0.06310        1.96260       -0.90770
H         -0.73390        1.90780        0.73500
H         -0.20150       -0.36620       -2.11000
H         -0.40880       -3.28890       -2.61460
H         -0.83060       -4.19900       -1.15570
H         -1.89580       -2.90840       -1.73580
H          1.30190       -3.60080       -0.19750
H         -0.39590       -3.07500        1.28850
H          0.96420       -0.64010        1.83260
H         -0.79710       -0.66810        1.92420
