18
gdb 6956	2.58616	2.2095	1.63531	1.7516	67.25	-0.239	-0.0234	0.2157	876.568	0.152718	-384.968777	-384.960554	-384.959609	-385.001054	30.587
C          0.07520        1.50080        0.05340
C         -0.05800       -0.03460       -0.03440
C         -1.52270       -0.46990       -0.03230
C          0.78390       -0.58800       -1.19730
O          2.12740       -0.64790       -0.71070
C          2.06780       -1.08710        0.63170
C          0.70700       -0.62930        1.16220
O          0.30970       -0.72500        2.29330
H          1.12410        1.80860        0.00740
H         -0.45500        1.97150       -0.78130
H         -0.35410        1.87190        0.98840
H         -2.07420        0.00360       -0.85120
H         -1.61860       -1.55500       -0.14080
H         -1.99530       -0.18600        0.91220
H          0.43430       -1.59250       -1.48720
H          0.78580        0.04940       -2.08480
H          2.12750       -2.18600        0.71330
H          2.89770       -0.65800        1.20040
