17
gdb 19513	3.36531	1.93386	1.78868	3.6536	68.3	-0.2469	0.0094	0.2563	822.7977	0.144222	-363.875812	-363.868881	-363.867937	-363.906966	26.278
O          0.26120        0.17340       -0.60810
C          0.22960        1.32870       -0.25140
N          1.25440        1.98730        0.38470
C          2.67250        1.95470        0.12240
C          3.11580        1.63570       -1.29630
C          2.25270        2.54880       -2.20100
C          1.86680        3.76910       -1.32830
C          1.89670        3.25440        0.10340
H         -0.67530        1.96340       -0.33460
H          3.30430        1.67480        0.96050
H          4.18050        1.88150       -1.38430
H          2.99460        0.57810       -1.54320
H          2.78230        2.84850       -3.10810
H          1.35760        2.01150       -2.52370
H          2.61310        4.56810       -1.41310
H          0.90280        4.20250       -1.61230
H          1.93580        3.96140        0.92770
