13
gdb 16200	3.35007	2.45062	1.56128	3.9663	60.34	-0.226	-0.032	0.194	770.2675	0.096059	-398.613231	-398.606678	-398.605734	-398.643855	24.764
O          0.05670       -0.00180        0.00990
C          0.02380        1.20440        0.02300
N         -1.09800        2.01470        0.02570
C         -0.74040        3.37340        0.00440
C          0.58940        3.53740        0.01980
C          1.19580        2.18730        0.06060
C          2.46070        1.77970        0.70420
O          2.35270        1.84260       -0.70910
H         -2.03430        1.65440       -0.04820
H         -1.51890        4.12240       -0.01040
H          1.12940        4.47040        0.01380
H          3.08390        2.54250        1.16890
H          2.52100        0.77650        1.12350
