16
gdb 21031	3.9427	1.7272	1.21945	2.5192	68.36	-0.2109	0.0449	0.2557	976.4975	0.130358	-379.949604	-379.941133	-379.940189	-379.983044	29.724
C         -0.05340        1.39620       -0.06270
N         -0.02210       -0.04560        0.01860
N         -0.04760       -0.80620       -1.11320
C          0.04550       -2.06210       -0.68920
C          0.03650       -3.19240       -1.66920
C          0.14090       -2.13210        0.72360
C          0.09660       -0.81270        1.12450
O          0.14810       -0.20630        2.33370
H          0.92690        1.80150       -0.33700
H         -0.78130        1.69070       -0.82090
H         -0.34750        1.80050        0.90680
H          0.95140       -3.79150       -1.59970
H         -0.80740       -3.86940       -1.49470
H         -0.04180       -2.79890       -2.68500
H          0.22270       -3.00590        1.35020
H          0.17870       -0.88540        3.01420
