18
gdb 16415	3.45458	2.15288	1.7662	1.6766	71.64	-0.2409	0.0076	0.2485	808.8486	0.156521	-347.796065	-347.78948	-347.788536	-347.826324	27.23
O          0.13490        1.39040       -0.18890
C          0.02440       -0.02340       -0.02630
C          0.75880       -0.50580        1.20690
C          0.09700       -1.21670        2.12210
C         -1.36270       -1.52840        1.87170
C         -1.50740       -2.00200        0.38930
C         -1.44320       -0.49160        0.01800
C         -2.06600       -0.21240        1.41700
H         -0.15500        1.79620        0.63560
H          0.49850       -0.43150       -0.92880
H          1.80460       -0.23290        1.31170
H          0.57570       -1.57920        3.02700
H         -1.81690       -2.12410        2.66460
H         -0.73120       -2.66530       -0.00120
H         -2.49480       -2.42490        0.18300
H         -1.97640       -0.14120       -0.86830
H         -3.15400       -0.31550        1.39270
H         -1.79960        0.70890        1.94380
