17
gdb 12576	3.08718	2.01446	1.24719	4.161	72.41	-0.237	-0.0128	0.2242	964.6027	0.141633	-363.931514	-363.922795	-363.921851	-363.965647	30.398
C          0.09110        1.49690       -0.18340
C         -0.00880        0.01060       -0.06900
C         -1.09310       -0.76890        0.06040
C         -2.54400       -0.42830        0.13340
C         -0.66380       -2.20220        0.13530
O         -1.36920       -3.18430        0.25410
N          0.70850       -2.18240        0.04130
C          1.23870       -0.84850       -0.09070
H          0.69690        1.91690        0.62940
H          0.57900        1.79010       -1.12140
H         -0.89070        1.97390       -0.15180
H         -2.72430        0.64710        0.06800
H         -3.09410       -0.92430       -0.67360
H         -2.97680       -0.79860        1.06920
H          1.25960       -3.02250        0.06560
H          1.80070       -0.71150       -1.02710
H          1.91910       -0.58430        0.73310
