17
gdb 7454	3.04048	1.67505	1.14066	4.1256	61.24	-0.2575	0.0245	0.2821	1024.0649	0.140667	-438.175106	-438.16611	-438.165166	-438.208541	33.263
C          0.06050        1.54610       -0.07750
C          0.03180        0.03290        0.09920
O          0.52030       -0.34530        1.39530
C         -1.40250       -0.52570        0.00520
O         -2.03930       -0.02910       -1.13780
C         -1.45220       -2.06850       -0.05880
N         -0.83240       -2.74050        0.93370
O         -2.06850       -2.60220       -0.97100
H          1.08920        1.92090       -0.02130
H         -0.35590        1.81770       -1.04910
H         -0.52820        2.03190        0.70710
H          0.64140       -0.44130       -0.68560
H          1.41700       -0.01000        1.48800
H         -1.92980       -0.20890        0.92130
H         -2.37020       -0.82840       -1.58870
H         -0.19910       -2.23840        1.53990
H         -0.79620       -3.74540        0.87580
