18
gdb 12372	2.90242	2.07251	1.40872	1.7539	70.03	-0.2406	0.0162	0.2568	922.9674	0.1544	-384.947299	-384.939471	-384.938527	-384.979145	29.791
C         -0.00230        1.52360        0.08730
C         -0.01700        0.02420        0.00660
C         -0.00110       -0.66280       -1.13720
C          0.05250       -2.16570       -1.18420
O          0.37640       -2.74810        0.06580
C         -0.39760       -2.18400        1.11450
C          0.00950       -0.72770        1.32610
O          1.29820       -0.63540        1.93530
H          0.84710        1.85880        0.69340
H          0.07020        1.98500       -0.90120
H         -0.90830        1.90280        0.57760
H         -0.02210       -0.15000       -2.09680
H         -0.90970       -2.56860       -1.55330
H          0.82440       -2.50070       -1.88690
H         -1.47440       -2.25870        0.88990
H         -0.18190       -2.76860        2.01270
H         -0.67770       -0.25680        2.04000
H          1.89310       -1.13270        1.36000
