15
gdb 7072	2.22139	1.75978	1.03887	5.846	62.89	-0.2872	-0.0024	0.2848	1086.1043	0.116709	-399.840501	-399.831772	-399.830828	-399.874805	29.524
C         -0.13560        1.64930        0.07250
C         -0.00140        0.13460       -0.01260
C         -1.37400       -0.55870       -0.13170
C         -1.26370       -2.01390       -0.07960
N         -1.14520       -3.16160       -0.02160
O          0.76740       -0.18160       -1.17840
C          1.82340       -1.02150       -1.05770
O          2.51340       -1.31300       -1.98370
H          0.85280        2.11020        0.13530
H         -0.64020        2.04100       -0.81550
H         -0.71000        1.93640        0.95800
H          0.51510       -0.24950        0.87660
H         -2.02740       -0.22230        0.68030
H         -1.84200       -0.26400       -1.07690
H          1.96590       -1.38530       -0.02260
