13
gdb 4094	3.63551	1.93228	1.29698	4.0812	58.85	-0.2576	-0.0592	0.1984	872.408	0.095927	-435.728225	-435.721243	-435.720298	-435.759784	25.207
O         -0.06270        1.31040       -0.20450
N          0.01840       -0.06370       -0.14150
C         -1.09930       -0.64420        0.06250
C         -1.22710       -2.13850        0.16090
C         -2.72910       -2.33530       -0.11220
O         -3.36610       -1.08420        0.20360
C         -2.47330       -0.05160        0.22880
O         -2.80900        1.08530        0.38000
H          0.85270        1.56380       -0.37240
H         -0.58760       -2.67200       -0.54380
H         -0.97230       -2.47680        1.17190
H         -2.92520       -2.56590       -1.16500
H         -3.18870       -3.10670        0.50790
