17
gdb 9890	3.9895	1.22731	1.15076	4.7527	65.63	-0.2598	0.0131	0.2729	1087.6794	0.141049	-400.996469	-400.987965	-400.987021	-401.030137	30.101
C         -0.07220        1.62070       -0.14330
C         -0.21290        0.11710       -0.04080
C         -1.62640       -0.39710        0.12570
O         -2.22470        0.13000        1.31780
C         -2.06740       -0.58570        2.45330
O         -2.45260       -0.19180        3.51280
C          0.77810       -0.76430       -0.70980
N          0.75940       -0.64920        0.76090
H          0.97840        1.90910       -0.24740
H         -0.61450        2.00820       -1.01300
H         -0.48020        2.10770        0.74730
H         -2.26820       -0.06970       -0.69700
H         -1.62480       -1.49240        0.15690
H         -1.56410       -1.55440        2.28380
H          0.48490       -1.73690       -1.09670
H          1.58350       -0.28680       -1.26180
H          1.51150       -0.04030        1.07400
