14
gdb 9812	3.63273	1.70453	1.27572	4.6008	63.68	-0.2738	-0.0914	0.1824	920.9599	0.105852	-378.711559	-378.703533	-378.702589	-378.744746	28.281
C          0.04040        1.44070        0.21390
C          0.07910       -0.06180        0.03560
C          0.64050       -0.65840       -1.21940
N          1.38710       -0.76870        0.02740
C         -0.98300       -0.88270        0.71480
O         -1.09840       -2.07630        0.59900
C         -1.94030       -0.13530        1.56180
N         -2.68930        0.44310        2.22650
H          0.83250        1.90880       -0.37740
H         -0.91450        1.86150       -0.11580
H          0.18360        1.72420        1.26150
H          0.22230       -1.59450       -1.57570
H          0.97120        0.03870       -1.98500
H          2.12680       -0.06970        0.06080
