9
gdb 143	17.10357	3.50921	3.35299	2.8377	40.21	-0.2775	0.0076	0.2851	386.5557	0.069125	-226.107205	-226.102575	-226.10163	-226.134578	15.572
N          0.04030       -1.13400       -0.00850
C          0.01160        0.02220        0.01750
C         -0.00670        1.46260        0.03400
C          0.51090        2.17320        1.24360
N          1.26810        2.20880       -0.00660
H         -0.80720        1.91000       -0.54680
H          0.04580        3.11180        1.52830
H          0.87080        1.56250        2.06590
H          2.04960        1.55860        0.03180
