16
gdb 16363	2.6746	2.24577	1.41693	3.211	66.59	-0.236	-0.0188	0.2172	884.2894	0.129129	-383.731684	-383.723921	-383.722976	-383.763901	28.916
O          0.13220        1.17770       -0.51750
C          0.06480       -0.11040        0.05230
C          0.06610       -0.19730        1.61890
C         -1.31550       -0.88050        1.52880
O         -2.05040       -1.39820        2.32340
C         -1.36010       -0.67640        0.04580
C         -2.54410       -0.12380       -0.72370
C         -2.07850       -1.51740       -0.98310
H          1.04850        1.47100       -0.49510
H          0.79800       -0.78660       -0.40740
H          0.85710       -0.78270        2.09470
H          0.01090        0.79120        2.08520
H         -3.46070        0.02280       -0.16300
H         -2.30770        0.64830       -1.44660
H         -1.54510       -1.72180       -1.90570
H         -2.66980       -2.34140       -0.59750
