14
gdb 14321	5.55166	1.7355	1.43837	5.1423	65.02	-0.266	-0.0448	0.2212	833.7315	0.108878	-382.55754	-382.55152	-382.550576	-382.587642	23.484
O         -0.01940        0.02730        0.19990
C          0.01490        1.20300       -0.01250
O         -1.14100        1.92500       -0.33070
C         -0.77010        3.26210       -0.56900
C         -0.90960        4.44990        0.45880
C          0.60370        4.80090        0.17260
C          0.68710        3.36320       -0.27950
C          1.14920        2.16840        0.08950
H         -1.10570        3.56460       -1.56550
H         -1.65490        5.21170        0.22430
H         -1.04370        4.07710        1.47490
H          0.70280        5.52870       -0.63700
H          1.23240        5.09920        1.01160
H          2.08470        1.88680        0.54970
