18
gdb 6109	2.89519	1.81088	1.50826	2.2614	68.01	-0.2481	-0.025	0.2231	926.2964	0.151013	-384.952233	-384.943402	-384.942458	-384.985023	32.743
C         -0.15180        1.50300        0.12300
C         -0.02730       -0.01710        0.01610
C         -1.35790       -0.68000       -0.31980
C          1.20420       -0.43980       -0.86660
C          1.99790       -0.48860        0.44040
O          3.11630       -0.19040        0.76080
C          0.72930       -0.61840        1.27500
O          0.69180        0.00980        2.51930
H          0.81580        1.97750        0.31930
H         -0.54720        1.92450       -0.80690
H         -0.82370        1.77760        0.94110
H         -1.74070       -0.33060       -1.28520
H         -1.25780       -1.76940       -0.37360
H         -2.11170       -0.44850        0.44080
H          1.07980       -1.42970       -1.31660
H          1.56430        0.26010       -1.62340
H          0.43830       -1.67360        1.38160
H          1.54170        0.45220        2.63850
