18
gdb 9614	3.19412	1.451	1.19198	1.7911	74.89	-0.2413	0.0465	0.2878	1069.9545	0.150859	-347.760515	-347.751471	-347.750526	-347.793719	33.914
C         -0.25720        1.55520        0.09540
C          0.17870        0.09720       -0.09000
C          0.79880       -0.49500        1.15880
O          1.99360        0.11740        1.57270
C         -0.06360       -1.09070        2.23720
C          0.82410       -1.99540        1.37590
C          0.24780       -2.90840        0.43480
C         -0.23160       -3.68250       -0.35210
H          0.59550        2.19790        0.34110
H         -0.70440        1.94930       -0.82150
H         -0.99740        1.65150        0.89750
H         -0.67670       -0.51690       -0.38750
H          0.91230        0.02920       -0.90220
H          1.76990        0.97200        1.95730
H          0.24690       -0.95320        3.26680
H         -1.13390       -1.15020        2.07470
H          1.72980       -2.34040        1.86510
H         -0.65000       -4.36600       -1.04810
