17
gdb 5065	3.28389	1.9534	1.2443	1.9686	72.5	-0.1707	0.0586	0.2294	963.4187	0.143167	-360.070753	-360.061847	-360.060902	-360.103798	32.534
C         -0.04720        1.51510        0.10020
C         -0.01010        0.02890       -0.00220
C         -0.03480       -0.77510       -1.12570
N         -0.12950       -0.29800       -2.46620
C          0.01380       -2.13850       -0.68930
N         -0.08020       -3.24520       -1.56160
C          0.06880       -2.12590        0.68470
N          0.05430       -0.80090        1.08580
H          0.90600        1.94260        0.43900
H         -0.26540        1.92560       -0.88860
H         -0.82400        1.86070        0.79350
H          0.76870       -0.30770       -2.94180
H         -0.75440       -0.88750       -3.00820
H          0.54480       -3.14540       -2.35450
H          0.13910       -4.11710       -1.09550
H          0.10460       -2.92930        1.40240
H          0.08600       -0.49170        2.04020
