17
gdb 4535	3.69711	1.67832	1.17159	1.7883	72.76	-0.1822	0.0504	0.2325	1020.8933	0.141524	-363.896021	-363.887236	-363.886292	-363.929406	31.243
C         -0.05370        1.46330        0.00820
N         -0.06110        0.01890        0.01290
C         -0.06550       -0.78230       -1.09540
C          0.04590       -2.10110       -0.70270
C          0.05780       -3.32180       -1.57120
C          0.12880       -2.07700        0.72050
O          0.23790       -3.15260        1.55770
C          0.06590       -0.76880        1.14000
H          0.95400        1.87000        0.15930
H         -0.43280        1.82240       -0.95120
H         -0.70420        1.84780        0.79960
H         -0.14730       -0.35560       -2.08340
H          0.98140       -3.90560       -1.45700
H         -0.77990       -3.99830       -1.35270
H         -0.01890       -3.05060       -2.62780
H          0.25710       -3.95000        1.02070
H          0.09650       -0.34250        2.12850
