16
gdb 17806	4.51185	1.67017	1.49682	2.3579	65.	-0.243	0.0276	0.2706	866.6455	0.132234	-379.869309	-379.862283	-379.861339	-379.900831	26.804
N          0.33060        0.60700        0.58470
C         -0.33740        0.64010       -0.60020
O         -0.04460        1.36030       -1.53490
C         -1.55150       -0.27540       -0.63090
C         -1.71960       -1.37130       -1.70630
C         -0.60450       -2.11200       -0.93890
N         -1.47800       -1.56610        0.21570
C         -2.65690       -2.02540       -0.66590
H          1.13980        1.19240        0.71100
H          0.06870       -0.05740        1.29520
H         -2.44420        0.31940       -0.40580
H         -1.85540       -1.24930       -2.78380
H         -0.58990       -3.20390       -0.98340
H          0.40740       -1.70340       -0.96060
H         -3.59990       -1.52590       -0.42770
H         -2.77460       -3.11150       -0.69350
