13
gdb 14595	12.05749	0.63791	0.63378	2.6514	62.23	-0.2623	-0.0415	0.2208	1629.2923	0.091881	-435.753486	-435.745022	-435.744077	-435.787922	27.311
O         -0.30660        0.47110        0.77490
C          0.09470        1.04140       -0.20330
C          1.30920        1.96580       -0.19850
N          1.20320        2.94530       -1.25710
C          1.33500        4.15370       -0.95420
O          1.23080        5.10430       -1.92930
C          1.37540        6.41500       -1.56880
O          1.29810        7.29530       -2.36240
H         -0.37950        0.92510       -1.20120
H          1.43810        2.37980        0.81260
H          2.17830        1.32310       -0.40680
H          1.53550        4.55030        0.04980
H          1.56590        6.54550       -0.48860
