18
gdb 11701	5.54362	1.3307	1.21523	0.9197	80.16	-0.2289	0.0419	0.2708	1038.7278	0.152894	-310.6141	-310.606166	-310.605222	-310.645884	30.902
C         -0.13790        1.56840        0.06320
C          0.07680        0.06020        0.02550
C          1.16850       -0.53410       -0.93000
C          1.80970       -1.26540        0.26680
C          2.21650       -0.24510        1.30730
C          0.76960       -0.62030        1.21620
C          2.31740       -2.59360        0.24260
C          2.74010       -3.72050        0.19830
H          0.79360        2.10520        0.27030
H         -0.52360        1.93180       -0.89570
H         -0.86060        1.84380        0.83910
H         -0.87760       -0.43690       -0.17290
H          0.75570       -1.21440       -1.67640
H          1.82250        0.18720       -1.43140
H          2.74670       -0.65290        2.16090
H          2.56950        0.73220        0.98610
H          0.26090       -1.09320        2.04790
H          3.11640       -4.71230        0.16440
