19
gdb 11535	4.23122	1.21591	1.02143	0.9671	74.98	-0.2383	0.0315	0.2697	1209.1132	0.162815	-365.051994	-365.042511	-365.041567	-365.087744	32.803
C         -0.32420        1.35050       -0.11600
N         -0.09440       -0.07870        0.00020
C          0.62910       -0.64780       -0.86870
C          1.31230       -0.02920       -2.06190
O          0.89420       -1.97830       -0.80120
C          0.30980       -2.68910        0.26740
C         -0.95900       -3.44260        0.00740
C          0.36370       -4.17590        0.13970
H          0.60160        1.93440       -0.00740
H         -0.77650        1.63300       -1.07800
H         -1.00760        1.66890        0.67550
H          2.00100        0.75930       -1.74100
H          1.86720       -0.78100       -2.62280
H          0.57430        0.43830       -2.72210
H          0.44930       -2.21220        1.22990
H         -1.68720       -3.51400        0.80730
H         -1.38070       -3.36420       -0.98810
H          0.80200       -4.57350       -0.76870
H          0.55580       -4.76190        1.03130
