17
gdb 6656	6.94266	0.75225	0.69621	3.8804	71.14	-0.2481	0.0295	0.2777	1548.9588	0.13971	-363.869829	-363.860112	-363.859168	-363.905876	33.406
N         -0.03860        1.31980        0.27710
C          0.05010        0.03500       -0.17820
O          1.08130       -0.42460       -0.62780
C         -1.24860       -0.76750       -0.09060
C         -0.99060       -2.27150        0.01180
C         -2.29150       -3.09260       -0.07690
C         -2.06490       -4.52830        0.03650
C         -1.85380       -5.70750        0.13420
H          0.76020        1.92160        0.16060
H         -0.90470        1.72150        0.58970
H         -1.85830       -0.41410        0.75020
H         -1.82490       -0.54850       -1.00090
H         -0.30380       -2.56770       -0.78450
H         -0.48280       -2.49850        0.95500
H         -2.98720       -2.77240        0.71060
H         -2.79560       -2.87740       -1.02890
H         -1.67470       -6.75050        0.21780
