20
gdb 6377	4.69237	1.02127	0.94408	3.4016	73.61	-0.2369	0.0651	0.302	1329.0091	0.175727	-382.370706	-382.360463	-382.359519	-382.406349	35.728
C          0.04150        1.44140       -0.01710
N         -0.03610       -0.00470        0.08250
C         -1.26770       -0.63060        0.01250
O         -2.32620       -0.02420        0.04900
N         -1.18910       -2.00650       -0.10430
C         -2.39710       -2.82050        0.04080
C         -2.17990       -4.16930       -0.64690
C         -2.81850       -2.97680        1.50840
H          0.90960        1.80760        0.53880
H          0.11200        1.79580       -1.05460
H         -0.86770        1.85470        0.41980
H          0.75530       -0.52180       -0.26750
H         -0.33380       -2.43970        0.21370
H         -3.18140       -2.26710       -0.48240
H         -1.37780       -4.73750       -0.15880
H         -3.08810       -4.77680       -0.59590
H         -1.91000       -4.03460       -1.69800
H         -3.74670       -3.55250        1.58740
H         -2.04730       -3.50230        2.08470
H         -2.98380       -1.99480        1.95760
