18
gdb 8268	4.86907	0.96196	0.9213	1.697	77.81	-0.241	0.0328	0.2738	1347.9478	0.151875	-347.768519	-347.759397	-347.758453	-347.804041	31.574
C         -0.22370        1.42290        0.11710
C         -0.06310       -0.02280        0.07770
C          0.06260       -1.22030        0.04190
C          0.22590       -2.66190        0.00640
C          0.45360       -3.40960        1.34720
C         -0.77220       -4.24890        0.92930
C         -1.96270       -4.30910        1.86350
O         -1.01140       -3.39110       -0.21630
H          0.30620        1.90790       -0.71000
H         -1.28080        1.70130        0.04290
H          0.16330        1.84150        1.05270
H          0.96610       -2.93370       -0.75930
H          1.40480       -3.93370        1.44710
H          0.28160       -2.78400        2.22440
H         -0.50230       -5.26070        0.59360
H         -2.23010       -3.30690        2.21180
H         -2.82960       -4.73750        1.35050
H         -1.73570       -4.93620        2.73290
