16
gdb 5262	7.15847	1.12975	0.98787	2.3765	67.24	-0.2162	0.0373	0.2534	1155.4195	0.131692	-379.945427	-379.937601	-379.936657	-379.978669	27.42
C         -0.04850        1.39900        0.01030
O          0.01150       -0.00570        0.00220
C         -1.26490       -0.60710        0.01070
C         -1.09800       -2.09170        0.00200
C          0.06640       -2.81200       -0.00950
N         -0.32900       -4.13390       -0.01260
C         -1.69060       -4.14880       -0.00440
N         -2.18820       -2.93370        0.00490
H          0.97890        1.77130        0.00280
H         -0.57540        1.79140       -0.87420
H         -0.55880        1.78190        0.90860
H         -1.83810       -0.29430        0.90090
H         -1.85400       -0.28590       -0.86600
H          1.09980       -2.51420       -0.01500
H          0.27880       -4.93520       -0.02030
H         -2.25850       -5.06710       -0.00520
