18
gdb 808	3.31007	1.92301	1.3919	0.6108	67.1	-0.2392	0.0153	0.2545	933.3907	0.158157	-326.949535	-326.940745	-326.939801	-326.982785	31.175
C          1.08750        0.51500       -1.06560
C          0.03880        0.00710       -0.05770
C          0.68200       -0.60040        1.16600
C          0.81670       -2.09910        1.27320
C         -0.52410       -2.81110        1.52100
N          1.15560        0.07410        2.14420
O          0.98580        1.46160        1.96080
H          1.74400       -0.29510       -1.39940
H          0.59880        0.93630       -1.94930
H          1.70650        1.29090       -0.60980
H         -0.59610        0.84250        0.25090
H         -0.60250       -0.73850       -0.53840
H          1.26360       -2.48170        0.34540
H          1.51120       -2.32450        2.08700
H         -0.96540       -2.48450        2.46750
H         -1.24750       -2.60720        0.72520
H         -0.38030       -3.89470        1.56820
H          1.36860        1.81640        2.76950
