19
gdb 6464	3.76395	1.36236	1.2427	4.0187	72.11	-0.2439	0.0391	0.2831	1063.229	0.164274	-365.099941	-365.091185	-365.09024	-365.13318	32.703
C         -0.14960        1.55310        0.05840
C          0.08760        0.03960        0.04080
C          0.78170       -0.48830       -1.22240
C          2.19650        0.05940       -1.40980
C          0.66070       -2.03760       -1.41370
C         -0.16800       -1.71620       -2.67950
O         -0.70340       -2.34880       -3.55000
N         -0.05570       -0.36930       -2.43970
H          0.78740        2.11800        0.06010
H         -0.73430        1.87150       -0.81190
H         -0.70960        1.84510        0.95150
H          0.68790       -0.25190        0.91200
H         -0.87550       -0.47510        0.13630
H          2.81710       -0.16660       -0.53620
H          2.66740       -0.38510       -2.29130
H          2.19300        1.14560       -1.54400
H          1.59830       -2.55810       -1.61760
H          0.10860       -2.56510       -0.63350
H         -0.32820        0.42700       -2.99780
