17
gdb 17361	3.85703	1.7013	1.53105	1.3027	67.76	-0.2392	-0.0213	0.2179	893.1283	0.14152	-363.832658	-363.824899	-363.823955	-363.865336	28.424
C          0.62660        0.34370        1.36910
C          0.10310        0.04500       -0.02090
O          0.68090        0.38930       -1.02830
C         -1.18510       -0.76060       -0.07060
C         -1.74710       -1.20820       -1.43800
C         -1.51700       -2.64060       -0.95820
C         -0.11210       -2.85520       -0.57560
N         -1.00870       -2.19950        0.40910
H          1.63420        0.75670        1.31220
H         -0.03450        1.06710        1.86160
H          0.61480       -0.56440        1.98060
H         -1.93500       -0.29230        0.57400
H         -2.79880       -0.94940       -1.56720
H         -1.18100       -0.89290       -2.31660
H         -2.22740       -3.45550       -1.04890
H          0.17740       -3.85040       -0.25370
H          0.67630       -2.28150       -1.05640
