11
gdb 488	25.27902	1.46993	1.41333	3.4446	52.71	-0.2821	0.0193	0.3014	773.7747	0.083685	-248.137789	-248.131277	-248.130333	-248.167922	22.093
C          0.01400       -1.20900       -0.00440
C         -0.02310       -0.00830        0.00250
C         -0.02680        1.44770        0.01050
C          1.41510        2.01960       -0.00110
C          1.42430        3.48020        0.00710
N          1.41030        4.63550        0.01330
H          0.02800       -2.27100       -0.01010
H         -0.57200        1.83020       -0.85950
H         -0.55410        1.82060        0.89550
H          1.96590        1.65310        0.87070
H          1.94790        1.66280       -0.88800
