15
gdb 7615	2.80617	2.08578	1.45816	4.0755	58.36	-0.2332	0.0151	0.2483	863.3422	0.117929	-436.952479	-436.94459	-436.943645	-436.984226	30.457
N         -0.00170        1.26880        0.10040
C          0.04580       -0.07630       -0.05760
O          1.09270       -0.70650       -0.19510
C         -1.28470       -0.76140       -0.03620
O         -2.40450        0.05670        0.18320
C         -1.43810       -2.01820       -0.88580
C         -1.29180       -2.15290        0.60160
O         -0.16990       -2.69060        1.19320
H          0.86520        1.75900        0.24880
H         -0.87080        1.68920        0.38600
H         -2.76400        0.30470       -0.67660
H         -2.41810       -2.18300       -1.32220
H         -0.58730       -2.28350       -1.50390
H         -2.19280       -2.36980        1.16630
H          0.59860       -2.27300        0.76290
