14
gdb 21015	5.11673	1.45851	1.14327	5.5106	68.09	-0.2445	-0.0443	0.2001	989.7454	0.107951	-378.752279	-378.744929	-378.743984	-378.784751	25.517
C         -0.06000        1.44070        0.01990
N          0.03880       -0.00590       -0.03380
C          0.17720       -0.78480       -1.14250
C          0.16040       -2.08990       -0.70930
C          0.00420       -1.99600        0.69480
C         -0.06450       -3.11900        1.64110
O         -0.19100       -3.03060        2.83850
N         -0.07090       -0.71590        1.08930
H          0.46520        1.87070       -0.83480
H         -1.10650        1.76000        0.00040
H          0.40020        1.78370        0.94660
H          0.27670       -0.35010       -2.12440
H          0.25660       -2.98190       -1.30740
H          0.01250       -4.11110        1.13980
