17
gdb 16626	3.05313	2.35854	1.55146	2.8207	68.31	-0.2484	0.025	0.2735	844.3286	0.143567	-363.871705	-363.864669	-363.863725	-363.902822	27.475
C          0.09930        1.60390        0.00450
C          0.08150        0.07380        0.00220
C          0.79170       -0.62530       -1.14660
C          2.30800       -0.53670       -1.20440
C          1.63850       -1.68980       -0.51580
O          1.53540       -1.59420        0.89380
C          0.74620       -0.52690        1.23940
N          0.59300       -0.10720        2.41920
H          1.12180        1.98530       -0.07280
H         -0.47660        1.99990       -0.83720
H         -0.33080        1.97710        0.93660
H         -0.96410       -0.26140        0.01190
H          0.24830       -0.80970       -2.06500
H          2.77670       -0.72470       -2.16410
H          2.82130        0.18920       -0.58150
H          1.72240       -2.71380       -0.85600
H          1.14070       -0.66400        3.07680
