20
gdb 8065	3.59141	1.49125	1.30274	1.9562	75.38	-0.2288	0.0855	0.3143	1050.1592	0.175899	-348.94799	-348.939674	-348.938729	-348.980705	31.66
C         -0.02110        1.63200        0.02400
C         -0.21090        0.11080       -0.04250
C          0.57300       -0.52010       -1.18450
C          2.10340       -0.79420       -1.14130
C          1.89170       -1.98070       -0.17710
C          0.83380       -2.05640       -1.31420
C         -0.11270       -3.15980       -1.67160
O          1.92620       -1.72830       -2.27490
H          1.02630        1.89330        0.20930
H         -0.31810        2.10860       -0.91640
H         -0.62160        2.07210        0.82590
H          0.06370       -0.33240        0.92060
H         -1.27580       -0.11470       -0.18700
H          0.28250       -0.09370       -2.15060
H          2.93750       -0.09450       -1.20110
H          2.66420       -2.74950       -0.22740
H          1.55950       -1.78740        0.84490
H         -0.86590       -3.28290       -0.88670
H         -0.62590       -2.93490       -2.61160
H          0.42410       -4.10640       -1.78660
