18
gdb 7252	4.29111	1.19652	1.03196	4.5225	70.63	-0.2497	-0.0201	0.2296	1168.9011	0.15316	-381.163674	-381.154578	-381.153634	-381.197711	32.313
C         -0.03430        1.70310        0.11060
C         -0.10290        0.17690        0.03210
C          0.65100       -0.47890        1.20790
C         -1.54180       -0.31840       -0.00630
N         -2.51250        0.39790        0.37940
N         -1.64410       -1.65100       -0.48690
C         -2.78310       -2.40660       -0.60210
O         -3.90250       -2.05550       -0.30370
H          1.00940        2.03230        0.12150
H         -0.53820        2.16570       -0.74140
H         -0.52800        2.06280        1.01590
H          0.38060       -0.14730       -0.90210
H          0.62230       -1.57280        1.16370
H          1.70100       -0.17160        1.20620
H          0.20600       -0.17210        2.15950
H         -3.39410       -0.11040        0.30710
H         -0.78840       -2.09380       -0.78690
H         -2.56110       -3.41050       -1.01410
