22
gdb 6054	2.99737	1.48687	1.26642	2.2886	74.1	-0.2539	0.0634	0.3172	1099.7467	0.19742	-387.352042	-387.341825	-387.34088	-387.386054	38.57
C          0.13170        1.59060       -0.05910
C         -0.01260        0.07250        0.07760
C         -1.47480       -0.44080        0.04090
C         -2.27770        0.07120        1.23670
O         -2.13990        0.03470       -1.12960
C         -1.45760       -1.99290       -0.01300
C         -2.83910       -2.63840        0.06310
O         -0.83220       -2.30460       -1.26650
H          1.18460        1.86770       -0.17010
H         -0.41240        1.94660       -0.93790
H         -0.25500        2.12500        0.81430
H          0.53150       -0.41820       -0.73560
H          0.45540       -0.26920        1.01040
H         -2.24210        1.16200        1.27690
H         -3.32680       -0.22000        1.15490
H         -1.87370       -0.31950        2.17630
H         -1.76390       -0.47560       -1.85940
H         -0.83000       -2.36400        0.81250
H         -3.50910       -2.18400       -0.67150
H         -2.76750       -3.71370       -0.14150
H         -3.27980       -2.52990        1.05730
H         -1.00830       -3.22720       -1.47120
