17
gdb 5261	6.9211	1.10641	0.96549	0.8289	71.41	-0.1986	0.0535	0.2521	1192.5662	0.142946	-363.883475	-363.875363	-363.874419	-363.91762	28.824
C         -0.20810        1.41140       -0.39720
O         -0.27370        0.01610       -0.54740
C         -0.98980       -0.61350        0.49480
C         -1.01260       -2.09100        0.25880
C         -0.43580       -2.74960       -0.80200
N         -0.68290       -4.09150       -0.64860
C         -1.40910       -4.30320        0.49460
C         -1.63010       -3.07960        1.08120
H          0.36000        1.80670       -1.24300
H         -1.20950        1.87200       -0.39620
H          0.29970        1.70050        0.53740
H         -0.52190       -0.38040        1.46880
H         -2.01760       -0.20960        0.54410
H          0.12200       -2.36590       -1.63880
H         -0.37620       -4.80910       -1.28070
H         -1.70470       -5.29640        0.79210
H         -2.17380       -2.90820        1.99830
