12
gdb 16263	3.47931	1.98297	1.42466	2.7578	63.18	-0.2513	-0.039	0.2123	833.3833	0.081308	-381.27428	-381.267352	-381.266408	-381.305451	25.738
O         -0.06840        0.00340       -0.00590
C         -0.05210        1.19140        0.05610
C         -1.15010        2.29050        0.18760
C         -0.03240        3.30780       -0.06690
O          0.90620        3.13810        0.98030
C          1.03510        2.26290       -0.17600
C          2.25990        2.19330       -0.88470
C          3.28330        2.07100       -1.50350
H         -1.88200        2.18890       -0.61940
H         -1.65820        2.38360        1.14890
H         -0.06800        4.26060       -0.58030
H          4.19130        1.97140       -2.04600
