16
gdb 6951	2.68967	2.34305	1.69538	2.9058	66.37	-0.2414	-0.0545	0.1868	823.1189	0.13001	-383.779091	-383.771511	-383.770567	-383.810756	28.848
C          0.05690        1.55230        0.01330
C         -0.03540        0.02160       -0.03840
O         -1.38860       -0.40130       -0.03640
C          0.72690       -0.58270       -1.23490
C          1.94610       -1.21780       -0.61400
C          1.93010       -1.21140        0.72680
C          0.68410       -0.58040        1.19320
O          0.21520       -0.54210        2.31010
H          1.09530        1.89600       -0.04530
H         -0.50500        1.98100       -0.82150
H         -0.37220        1.91730        0.95150
H         -1.66650       -0.38470        0.89040
H          0.10200       -1.33620       -1.72770
H          0.99520        0.15780       -1.99650
H          2.73610       -1.64740       -1.22150
H          2.66900       -1.63760        1.39280
