20
gdb 7284	3.38844	1.10713	1.00197	4.1929	72.28	-0.2448	-0.0154	0.2294	1243.7786	0.173377	-386.154725	-386.144621	-386.143677	-386.190254	35.488
C         -0.07640        1.56390        0.01530
C          0.02380        0.03760       -0.02120
O          0.69160       -0.40960       -1.19860
C          0.76960       -0.57970        1.17680
C          0.58270       -2.10420        1.20150
C          2.26910       -0.21080        1.18880
C          2.92690       -0.57090        2.49990
O          3.92490       -1.23260        2.62410
H          0.90960        2.03340       -0.04540
H         -0.66800        1.92640       -0.83340
H         -0.57240        1.90500        0.93010
H         -1.00150       -0.36970        0.00130
H          0.22510       -0.05630       -1.96200
H          0.30670       -0.15690        2.08000
H         -0.47680       -2.36730        1.28480
H          0.97120       -2.54760        0.28070
H          1.10870       -2.55960        2.04630
H          2.80350       -0.69430        0.36860
H          2.38430        0.87600        1.07480
H          2.40450       -0.15580        3.39690
