19
gdb 2576	2.74063	2.56635	1.65444	1.2836	67.36	-0.261	0.0729	0.3339	843.7051	0.170653	-310.905485	-310.897107	-310.896162	-310.938066	30.712
C          0.22900       -1.03060        1.85250
C          0.00990       -0.47560        0.43960
C         -1.40140       -0.67170       -0.09730
C         -2.49140        0.07890        0.63310
O         -2.21910        1.47300        0.54010
C         -1.57720       -0.84080       -1.58650
C         -1.77220       -2.02150       -0.66620
H          1.27330       -0.91340        2.15870
H         -0.38680       -0.50990        2.59280
H         -0.01850       -2.09650        1.90310
H          0.24230        0.59490        0.42440
H          0.71440       -0.95840       -0.24840
H         -3.46710       -0.16470        0.18280
H         -2.53140       -0.24120        1.68610
H         -2.83080        1.93680        1.11910
H         -2.45430       -0.40260       -2.05060
H         -0.68930       -0.81870       -2.20940
H         -1.01230       -2.79600       -0.65880
H         -2.78060       -2.39310       -0.51450
