24
gdb 6052	2.81378	1.42361	1.23509	1.3576	80.78	-0.2582	0.0693	0.3275	1159.0993	0.22061	-351.416744	-351.406074	-351.40513	-351.45127	40.216
C          0.17520        1.54760       -0.04070
C         -0.04360        0.03350        0.05040
C         -1.51110       -0.47180       -0.00320
C         -2.26240       -0.04460        1.27130
C         -2.23310        0.08850       -1.24270
C         -1.44000       -2.03070       -0.06860
C         -2.77470       -2.76940        0.06190
O         -0.74910       -2.47700       -1.23750
H          1.24090        1.77850        0.05680
H         -0.15620        1.95380       -1.00130
H         -0.34690        2.09560        0.75050
H          0.50600       -0.45800       -0.75830
H          0.40220       -0.33120        0.98600
H         -2.19700        1.03720        1.42050
H         -3.32560       -0.29820        1.22370
H         -1.84040       -0.52660        2.16120
H         -1.67620       -0.12610       -2.16090
H         -3.24110       -0.32670       -1.34670
H         -2.34350        1.17430       -1.17560
H         -0.79480       -2.35190        0.75970
H         -3.48030       -2.47840       -0.72520
H         -2.59610       -3.84440       -0.03020
H         -3.25540       -2.58580        1.02590
H         -1.35270       -2.39520       -1.98320
