17
gdb 9234	3.98624	1.01036	0.82998	3.015	68.46	-0.243	-0.02	0.2229	1336.8461	0.138228	-401.011238	-401.0015	-401.000556	-401.048226	32.068
C          0.04990        1.34610        0.20040
O         -0.01330       -0.03850       -0.14170
C         -1.18380       -0.66470        0.09630
C         -1.10860       -2.11610       -0.30820
N         -2.16270       -0.03580        0.60160
C         -3.41160       -0.71540        0.85070
C         -4.56010        0.28520        0.86430
O         -5.71780       -0.01800        0.74680
H          1.05750        1.66860       -0.06480
H         -0.69690        1.91890       -0.35650
H         -0.13220        1.49150        1.26880
H         -0.13150       -2.34020       -0.73530
H         -1.27750       -2.76390        0.55760
H         -1.88180       -2.35090       -1.04630
H         -3.66590       -1.51500        0.14030
H         -3.40570       -1.18300        1.85020
H         -4.22980        1.33790        1.00830
