17
gdb 1556	5.01499	1.24325	1.06355	3.4376	61.53	-0.2471	-0.0198	0.2273	1079.6708	0.145663	-346.859809	-346.850881	-346.849937	-346.894188	29.991
C         -0.09060        1.56280       -0.06910
C          0.01110        0.02700       -0.00980
C          0.79550       -0.48450        1.21600
C          2.27170       -0.10050        1.21740
O          2.86370       -0.72020        2.34830
C         -1.39040       -0.55200        0.04140
O         -1.87100       -1.28870       -0.77940
H          0.89680        2.02430       -0.14750
H         -0.67590        1.88280       -0.93660
H         -0.57460        1.95930        0.83070
H          0.47330       -0.35140       -0.92850
H          0.33510       -0.11210        2.13990
H          0.74020       -1.57860        1.25630
H          2.74240       -0.44160        0.28060
H          2.38670        0.99300        1.26270
H          3.79210       -0.47130        2.37730
H         -1.97660       -0.23090        0.93700
