12
gdb 3869	3.93505	3.33034	1.81541	3.6668	52.27	-0.2143	0.0126	0.2268	644.4786	0.092086	-356.679047	-356.672722	-356.671777	-356.708964	23.528
N          0.09910        1.42790        0.11360
C          0.00860        0.02910        0.00860
C         -1.04210       -0.82990        0.00560
O         -0.61080       -2.10740       -0.03500
N          0.78570       -2.11230       -0.06740
C          1.13980       -0.84880       -0.03810
N          2.45980       -0.42830       -0.11510
H          0.64990        1.82390       -0.64150
H         -0.80860        1.87600        0.11880
H         -2.11150       -0.69010        0.03420
H          3.11570       -1.18620        0.02550
H          2.65540        0.34500        0.50920
