18
gdb 16671	2.87863	2.24018	1.72635	2.6939	66.24	-0.2465	0.0574	0.3039	828.523	0.155187	-384.934442	-384.926981	-384.926037	-384.965707	29.434
O         -0.54200        1.11050        1.17540
C         -0.08080        0.12110        0.24850
C          0.87930       -0.90070        0.89150
C         -0.01050       -2.01320        1.43780
C         -1.19650       -1.60730        2.27800
C         -1.37670       -1.87950        0.80360
C         -1.33350       -0.70410       -0.16790
O         -2.50070        0.07910       -0.25840
H          0.15210        1.76310        1.29970
H          0.36670        0.62050       -0.61910
H          1.54990       -1.30510        0.12340
H          1.50920       -0.42630        1.65340
H          0.43700       -2.98630        1.60770
H         -1.59400       -2.35410        2.95710
H         -1.25640       -0.58860        2.64020
H         -1.95080       -2.74960        0.50590
H         -1.15830       -1.10640       -1.17360
H         -2.43310        0.73590        0.44640
