17
gdb 15335	3.83329	1.01879	0.87346	2.1198	74.49	-0.2367	0.0375	0.2742	1335.6352	0.141081	-363.804683	-363.795505	-363.794561	-363.840179	31.58
C          0.15050        1.51540        0.14560
C          0.05260        0.06390        0.10440
C         -0.03520       -1.13730        0.08040
C         -0.09970       -2.57230        0.01880
N         -0.78860       -3.29230        1.12220
C         -1.36580       -3.33210       -0.22970
C         -2.71330       -2.65900       -0.34260
O         -3.70660       -3.39880        0.34780
H          1.19180        1.84560        0.06170
H         -0.41180        1.97790       -0.67320
H         -0.24750        1.91080        1.08660
H          0.80160       -3.04200       -0.37110
H         -0.28760       -4.15380        1.32290
H         -1.26530       -4.26150       -0.78760
H         -2.63770       -1.62990        0.03370
H         -3.03000       -2.61380       -1.38980
H         -3.39770       -3.46410        1.25930
