22
gdb 11470	5.09512	1.11888	0.98504	1.608	78.48	-0.2368	0.0833	0.3202	1272.2633	0.200513	-350.22589	-350.216869	-350.215925	-350.259839	33.204
C          0.01660        1.59110       -0.00330
C          0.02290        0.06200        0.10070
C         -1.36010       -0.57240       -0.06190
C         -2.00050       -0.37670       -1.45010
O         -2.84820       -1.49740       -1.68710
C         -2.70740       -2.46340       -0.63780
C         -2.77520       -3.85980       -1.23630
C         -1.39520       -2.10320        0.06510
H          1.02000        2.00160        0.14560
H         -0.33460        1.92690       -0.98480
H         -0.64030        2.03580        0.75270
H          0.69720       -0.35670       -0.65880
H          0.43770       -0.23290        1.07280
H         -2.03310       -0.14670        0.69530
H         -2.59160        0.54420       -1.51980
H         -1.22530       -0.33570       -2.23200
H         -3.54350       -2.33690        0.07140
H         -1.94730       -4.01820       -1.93460
H         -2.72050       -4.61910       -0.44910
H         -3.71360       -3.99800       -1.78090
H         -0.54770       -2.54740       -0.47330
H         -1.35850       -2.45290        1.10050
