21
gdb 8673	2.58994	1.56041	1.27373	3.8495	78.34	-0.3101	0.0432	0.3534	1103.718	0.187084	-329.160214	-329.150269	-329.149324	-329.1944	36.158
C          0.13840        1.55310        0.06280
C         -0.03020        0.03330       -0.00840
C         -1.49510       -0.49140       -0.02350
C         -2.26270        0.03460       -1.25650
C         -1.45920       -2.04700       -0.00620
C         -2.81720       -2.74960        0.06710
C         -2.17520       -0.02300        1.19670
N         -2.70410        0.34130        2.15850
H          1.19930        1.80910        0.13820
H         -0.25570        2.05450       -0.82590
H         -0.36880        1.96770        0.93920
H          0.45740       -0.35500       -0.91100
H          0.48290       -0.42600        0.84410
H         -1.76440       -0.30890       -2.16890
H         -3.29290       -0.32660       -1.26890
H         -2.29510        1.12570       -1.27060
H         -0.92250       -2.36410       -0.90870
H         -0.84570       -2.35990        0.84620
H         -2.67560       -3.83160        0.14410
H         -3.38560       -2.42350        0.94340
H         -3.42720       -2.56310       -0.82150
