15
gdb 1921	4.83714	2.98381	2.5468	1.6938	60.4	-0.2315	0.0033	0.2348	602.1921	0.125388	-308.474441	-308.468592	-308.467648	-308.503585	23.56
C          0.03480        1.53850        0.06780
C          0.00970        0.03940       -0.02530
C          0.65160       -0.79990       -1.18190
C          0.64640       -1.80280        0.00680
O          0.92560       -0.66870        0.88850
C         -0.86580       -2.00860        0.23050
C         -1.30250       -0.74960        0.20830
H          1.04310        1.92220       -0.10880
H         -0.63990        1.97780       -0.67400
H         -0.28890        1.86560        1.06100
H          0.05190       -1.02510       -2.06650
H          1.65600       -0.45280       -1.43900
H          1.33750       -2.63830        0.10660
H         -1.39160       -2.94360        0.35610
H         -2.29500       -0.33570        0.31440
