18
gdb 10634	2.57768	1.76539	1.24609	1.7571	74.86	-0.2574	0.0286	0.286	1045.9794	0.15032	-347.759778	-347.750545	-347.749601	-347.793439	33.604
C          0.36580        1.45060        0.31830
C         -0.27680        0.14600       -0.16720
C          0.49020       -0.47740       -1.32260
O          1.77170       -1.05640       -0.98830
C          0.74490       -1.93620       -1.44670
C          0.24320       -2.99480       -0.49930
C          0.48070        0.30110       -2.54460
C          0.44450        0.95740       -3.55150
H          1.38860        1.26870        0.66090
H          0.40400        2.19280       -0.48420
H         -0.20390        1.87570        1.14950
H         -0.32640       -0.56820        0.65820
H         -1.30560        0.33090       -0.49820
H          0.90820       -2.29190       -2.46610
H          0.10830       -2.61390        0.51410
H         -0.70880       -3.40330       -0.85440
H          0.96410       -3.81820       -0.45540
H          0.42310        1.53320       -4.44360
