18
gdb 18114	4.21799	1.94852	1.42862	1.347	73.56	-0.2358	0.0188	0.2545	888.5108	0.156699	-347.818363	-347.811667	-347.810722	-347.849343	26.118
C          0.03070        1.41960        0.14960
C          1.51690        1.87390       -0.04730
C          2.13730        0.60880       -0.55910
C          3.31840       -0.00090       -0.56530
C          3.16950       -1.45650       -0.97630
C          1.64560       -1.72030       -0.77730
C          1.01880       -0.33010       -0.93170
O         -0.01390       -0.00000       -0.00640
H         -0.36320        1.65600        1.14140
H         -0.61420        1.90470       -0.59870
H          1.58020        2.70470       -0.75850
H          1.97590        2.20880        0.88700
H          4.27100        0.43660       -0.28660
H          3.47020       -1.61900       -2.02100
H          3.79200       -2.12640       -0.37270
H          1.24240       -2.46720       -1.46530
H          1.45920       -2.05980        0.24640
H          0.65720       -0.15730       -1.96260
