17
gdb 17454	3.51299	2.16417	1.70996	1.7717	67.82	-0.2308	0.0689	0.2996	809.9354	0.141899	-363.786132	-363.77881	-363.777866	-363.817177	28.599
C         -0.15600        1.48200       -0.05240
N          0.10590        0.05070        0.04320
C          1.42660       -0.50660       -0.15420
C          2.55420        0.33710        0.41070
C          3.20670       -0.39670        1.56560
C          1.88080        0.29110        1.77940
O          1.73390        1.36400        2.64490
C          0.74460       -0.54100        1.20320
H          0.62630        2.12120        0.37470
H         -0.28540        1.74060       -1.10840
H         -1.09430        1.69840        0.46730
H          1.54240       -1.32820       -0.85320
H          3.02840        1.18890       -0.06080
H          3.28410       -1.48090        1.55480
H          4.05470        0.11520        2.01290
H          1.82910        1.04250        3.54770
H          0.25110       -1.37490        1.69240
