17
gdb 20875	6.74168	1.07393	0.98655	2.3162	69.87	-0.2552	0.013	0.2682	1201.74	0.144436	-360.0815	-360.073731	-360.072787	-360.114498	27.767
C          0.01890        1.54150       -0.02020
C          0.06120        0.01210       -0.02780
C          0.62630       -0.57010        1.28030
C          0.72100       -2.06120        1.25780
N         -0.00530       -2.83930        2.04890
N          0.39190       -4.08180        1.67740
C          1.31780       -4.00290        0.70260
N          1.55370       -2.74160        0.40770
H          1.02110        1.96450        0.11210
H         -0.38550        1.93170       -0.95930
H         -0.60880        1.91880        0.79500
H         -0.94700       -0.38830       -0.18990
H          0.67400       -0.34420       -0.86310
H          1.62740       -0.15530        1.45230
H          0.00090       -0.27630        2.12890
H         -0.00110       -4.89110        2.12860
H          1.78010       -4.86890        0.25250
