11
gdb 670	7.07853	5.03226	3.55918	1.5227	45.26	-0.2458	0.015	0.2608	400.9456	0.086946	-285.279992	-285.275658	-285.274714	-285.307405	16.529
C          0.00940        1.49000        0.07370
C          1.31940        0.76600       -0.01620
O          1.95350        0.45670        1.21870
C          1.08420       -0.36810        1.86270
N          0.01150       -0.71580        1.27450
C          0.02040       -0.02460        0.00340
H         -0.27180        1.95860        1.01090
H         -0.30150        2.01680       -0.82170
H          2.01850        0.88720       -0.83270
H          1.39720       -0.67210        2.85380
H         -0.41670       -0.54330       -0.84060
