13
gdb 15500	3.87373	1.99669	1.32849	6.4455	62.18	-0.2501	-0.0559	0.1942	848.8313	0.096204	-398.66107	-398.654296	-398.653352	-398.692332	24.248
O         -0.17970        0.02060        0.00200
C         -0.02720        1.21140        0.00970
N          1.18450        1.88670        0.00220
C          1.24880        3.34370        0.01300
C          2.72500        3.61490       -0.00080
C          3.41560        2.47510       -0.01710
C          2.49000        1.31170       -0.01610
O          2.75480        0.13980       -0.02840
H         -0.87260        1.93150        0.02420
H          0.74830        3.77810       -0.86300
H          0.76720        3.76420        0.90610
H          3.12080        4.62200        0.00280
H          4.48720        2.33810       -0.02980
