20
gdb 17785	5.81114	1.14628	1.12091	0.9515	76.49	-0.2472	0.0969	0.344	1164.5817	0.177515	-348.94928	-348.941452	-348.940508	-348.981986	29.608
C         -0.05650        1.49020       -0.02310
C         -0.13350       -0.00070        0.25800
O         -1.31190       -0.51090       -0.34040
C         -1.45480       -1.89400       -0.20780
C         -2.03750       -2.50320        1.11350
C         -3.40000       -1.85950        0.71560
C         -2.83340       -2.47390       -0.60150
C         -2.44100       -3.72310        0.23930
H          0.84610        1.91720        0.42410
H         -0.03320        1.67610       -1.10070
H         -0.92720        2.00470        0.39360
H          0.75050       -0.51790       -0.15170
H         -0.14330       -0.19010        1.34320
H         -0.57510       -2.41610       -0.61510
H         -1.57590       -2.52800        2.10170
H         -4.29490       -2.33650        1.12410
H         -3.45990       -0.77250        0.75730
H         -3.28770       -2.45810       -1.59280
H         -1.63250       -4.35060       -0.14810
H         -3.27070       -4.32570        0.61450
