17
gdb 11287	3.96353	1.46098	1.22531	4.3278	68.5	-0.2786	0.0171	0.2957	1013.6532	0.143022	-363.889624	-363.881741	-363.880797	-363.922771	28.527
C         -0.12910        1.45970        0.04130
C          0.11270       -0.03740        0.03570
C          0.73620       -0.61820       -1.23880
C          1.41130       -1.90930       -0.73740
C          1.60590       -1.63450        0.78890
O          1.07920       -0.34640        1.05220
C          0.93360       -2.65700        1.61800
N          0.40740       -3.45980        2.26180
H          0.80080        1.99810       -0.16570
H         -0.86620        1.72660       -0.72180
H         -0.50810        1.78510        1.01360
H         -0.82650       -0.56810        0.26200
H         -0.00090       -0.80720       -2.02260
H          1.47980        0.08330       -1.63070
H          0.77330       -2.78170       -0.89060
H          2.36710       -2.10640       -1.22550
H          2.66290       -1.62070        1.07310
