9
gdb 21429	4.1377	2.1458	1.41301	2.9986	50.57	-0.3201	-0.13	0.1902	756.6112	0.046864	-466.623743	-466.617262	-466.616318	-466.656514	21.926
N         -0.10050        1.31820       -0.11330
C          0.00430        0.08220        0.07430
O         -1.07200       -0.62930        0.49750
C         -1.03170       -1.98310        0.72380
O         -1.99780       -2.55880        1.09270
O          0.14630       -2.59310        0.50430
N          1.34940       -1.82130        0.03520
N          1.22390       -0.63010       -0.13900
H          0.79060        1.70030       -0.42740
