14
gdb 21524	3.53946	1.9046	1.2978	4.445	60.07	-0.2153	0.0129	0.2282	884.2355	0.109337	-412.029119	-412.021764	-412.02082	-412.060712	27.213
N         -0.08860        1.38070       -0.13030
C         -0.08590       -0.00220       -0.06410
C         -1.13400       -0.90340        0.02780
C         -2.59460       -0.59230        0.01840
O         -2.91250        0.43200       -0.93460
N         -0.61000       -2.15840        0.12670
N          0.68430       -2.10520        0.11200
N          1.01580       -0.78310       -0.00250
H          0.65750        1.78400       -0.68160
H         -0.99430        1.71330       -0.44330
H         -3.16160       -1.51400       -0.16360
H         -2.93000       -0.18490        0.97900
H         -2.70090        0.07980       -1.80630
H          1.98690       -0.51730       -0.02130
