10
gdb 3902	5.97775	2.99214	1.99403	3.9663	51.	-0.2629	-0.0908	0.1721	574.962	0.069624	-355.520098	-355.515019	-355.514075	-355.549098	18.41
O         -0.02970       -0.05600        0.00330
C          0.02450        1.14940        0.00880
N         -1.16670        1.90960        0.02870
N         -1.28690        3.23050        0.03700
C         -0.16320        3.89120        0.02530
C          1.08810        3.19770        0.00500
N          1.19990        1.90520       -0.00310
H         -2.03470        1.38880        0.03760
H         -0.22730        4.97210        0.03170
H          2.01180        3.77780       -0.00440
