12
gdb 239	7.49331	2.71579	2.01778	0.9105	50.18	-0.2611	-0.0177	0.2434	587.7789	0.096761	-302.588564	-302.582194	-302.58125	-302.618688	21.828
C         -0.89410        0.61700        0.15640
C          0.42190       -0.08920        0.34520
N          1.35880        0.22540        1.14950
N          0.66960       -1.22720       -0.44180
C         -0.11180       -1.83180       -1.39420
O         -1.21290       -1.48520       -1.75380
H         -1.01370        0.95380       -0.87600
H         -1.73210       -0.05570        0.35350
H         -0.94310        1.47400        0.83140
H          1.10620        1.05560        1.68260
H          1.57340       -1.64060       -0.25300
H          0.40660       -2.71530       -1.81500
