15
gdb 20049	5.71811	1.39895	1.23118	2.3848	62.69	-0.2452	0.0013	0.2465	973.678	0.119896	-399.785495	-399.778332	-399.777388	-399.8184	24.935
C          0.05000        1.51220       -0.01830
O          1.22380        0.71200        0.05750
C         -0.04370        0.04760        0.06790
C         -0.43250       -0.60690        1.34390
N         -0.43430       -0.07450        2.49540
C         -0.84870       -1.12460        3.43670
C         -1.15390       -2.35600        2.54230
O         -0.80790       -1.90830        1.21080
H         -0.17370        2.09320        0.87310
H         -0.13020        1.99710       -0.97670
H         -0.26280       -0.53690       -0.82240
H         -0.04470       -1.31700        4.15530
H         -1.72190       -0.79380        4.00820
H         -0.54540       -3.23330        2.77550
H         -2.20880       -2.64540        2.54220
