16
gdb 18679	2.8972	2.6226	1.55052	3.565	64.72	-0.2225	0.0011	0.2237	811.3032	0.133429	-379.914168	-379.907512	-379.906568	-379.945014	25.691
O         -0.17710        0.26690        0.92820
C         -0.11200        1.25590        0.23640
C         -1.35260        1.88940       -0.41440
N         -1.26170        3.32810       -0.69960
C         -0.26050        3.98340        0.15340
C          1.10660        3.36610       -0.07820
C          1.85340        2.59890        0.97230
N          1.08990        1.90630       -0.05490
H         -1.58340        1.34360       -1.33520
H         -2.17630        1.68940        0.28110
H         -1.00330        3.46930       -1.67050
H         -0.25450        5.05640       -0.05690
H         -0.56890        3.85580        1.19870
H          1.68190        3.78840       -0.90180
H          2.93270        2.50260        0.90210
H          1.45310        2.57810        1.98280
