20
gdb 10205	3.13846	1.05925	0.84111	1.4818	72.31	-0.2478	-0.0213	0.2266	1381.4163	0.173984	-386.149787	-386.13955	-386.138606	-386.18606	34.888
C         -0.01690        1.55680        0.13640
C         -0.00290        0.03210       -0.00700
C          0.72110       -0.46720       -1.27680
C          0.86560       -2.00050       -1.26980
C          1.71620       -2.53780       -2.41550
O          1.77630       -3.94810       -2.27610
C         -0.06580       -0.03670       -2.49950
O          0.31740        0.71330       -3.35980
H          1.00150        1.95600        0.18930
H         -0.51320        2.04050       -0.71120
H         -0.54260        1.85790        1.04740
H          0.48700       -0.41810        0.86410
H         -1.03150       -0.35370       -0.00790
H          1.70940        0.00390       -1.34330
H          1.31560       -2.31840       -0.32280
H         -0.12470       -2.47190       -1.31620
H          1.27590       -2.25050       -3.38390
H          2.72070       -2.08620       -2.37300
H          2.30280       -4.30020       -2.99960
H         -1.08900       -0.48630       -2.54550
