15
gdb 3235	5.13446	2.66414	2.3046	1.0861	59.71	-0.2091	0.0797	0.2888	626.0347	0.124966	-308.435951	-308.429961	-308.429017	-308.465153	24.473
O         -0.07730        1.39630        0.05420
C          0.00100        0.01620        0.02550
C         -0.26070       -0.79780       -1.21110
C         -1.14590       -0.95820        0.01410
C         -0.48200       -1.75450        1.17500
C          0.91770       -2.23200        0.89070
C          0.67990       -0.77620        1.18930
H          0.71290        1.75040       -0.37030
H         -0.74000       -0.21640       -1.99360
H          0.39390       -1.57900       -1.58310
H         -2.20850       -0.75940       -0.03010
H         -1.05070       -2.12210        2.01930
H          1.37170       -2.78430        1.70910
H          1.23110       -2.58680       -0.08490
H          1.11360       -0.26630        2.04010
