12
gdb 3116	5.99438	2.27301	1.94738	4.5933	55.81	-0.2627	-0.0086	0.2541	650.329	0.090625	-323.338627	-323.33283	-323.331885	-323.368166	21.459
N          0.05140       -1.11810        0.03640
C          0.04640        0.03880        0.03250
C          0.04940        1.46610        0.01090
C          0.27170        2.32080       -1.20690
C          1.18150        2.48760       -0.01610
C          0.41590        3.14710        1.12550
O         -0.67360        2.18510        1.01020
H          0.72020        1.81770       -2.05680
H         -0.48230        3.06620       -1.44290
H          2.24830        2.32100       -0.05990
H          0.90660        3.04730        2.09850
H          0.07450        4.17670        0.97660
