17
gdb 7571	3.11134	1.9645	1.49097	3.0754	64.26	-0.24	0.0359	0.2758	885.1276	0.141559	-401.026064	-401.017594	-401.01665	-401.060919	31.356
N          0.03260        1.31170        0.22590
C          0.07170        0.00100       -0.11460
O          1.09280       -0.58760       -0.42740
C         -1.28220       -0.71600       -0.09330
O         -2.26250        0.19700        0.35950
C         -1.54480       -1.47060       -1.43590
C         -1.02010       -2.77210       -0.77400
C         -1.18380       -2.10310        0.61640
H          0.89340        1.83200        0.23760
H         -0.83590        1.74100        0.49330
H         -3.11810       -0.24130        0.34070
H         -2.62100       -1.50890       -1.63710
H         -1.02910       -1.10200       -2.32420
H         -1.59000       -3.68530       -0.95630
H          0.03030       -2.93950       -1.00950
H         -0.38060       -2.23210        1.34340
H         -2.14090       -2.34820        1.08910
