20
gdb 16596	3.30585	1.65097	1.39097	1.5874	74.75	-0.2421	0.0708	0.3129	994.352	0.176654	-348.974811	-348.966409	-348.965465	-349.007081	32.397
C         -0.03800        1.53000       -0.00960
C          0.11430        0.02290       -0.05740
C          0.71410       -0.76850       -1.18710
C          1.39100       -0.73960        0.19270
C          2.61600       -0.02800       -0.40170
O          3.83290       -0.73070       -0.27810
C          1.92730       -0.05990       -1.82030
C          2.65980       -0.88730       -2.87060
H          0.80840        2.05610       -0.45780
H         -0.94010        1.84380       -0.54650
H         -0.12960        1.87720        1.02530
H         -0.73950       -0.49490        0.37820
H          0.17080       -1.57880       -1.66270
H          1.45860       -1.51020        0.95400
H          2.83040        0.97020       -0.00750
H          3.67200       -1.65200       -0.50780
H          1.71170        0.93070       -2.23820
H          2.83170       -1.91770       -2.53820
H          2.06700       -0.94380       -3.78960
H          3.63130       -0.44880       -3.11520
