14
gdb 11496	4.45403	1.14883	0.99165	2.1572	58.84	-0.2567	-0.1007	0.1561	1130.1642	0.104079	-419.665414	-419.657269	-419.656325	-419.699621	27.377
O         -0.85740        1.50820        0.06880
C          0.20920        1.05520        0.38980
C          1.53030        1.82830        0.26310
O          2.54780        1.27780        0.61130
C          1.45360        3.22380       -0.32230
C          2.70680        4.03000       -0.09110
C          2.67840        5.49650       -0.08460
O          2.76500        4.75930        1.13570
H          0.34660        0.03560        0.80690
H          1.26150        3.10600       -1.39940
H          0.57360        3.73580        0.07930
H          3.63640        3.52770       -0.35400
H          3.57130        6.05530       -0.36060
H          1.73590        6.01740       -0.25040
