16
gdb 12972	2.38496	2.29049	1.78787	1.1463	60.02	-0.23	0.0644	0.2945	829.7037	0.128744	-420.820429	-420.812585	-420.811641	-420.85201	29.926
C         -0.09650        1.58840       -0.02930
C          0.14560        0.09410        0.01320
O          1.31660       -0.36240       -0.75110
C          1.73830       -1.19770        0.33750
C          2.16210       -0.31020        1.46230
O          2.78550        0.91700        1.24350
C          0.68240       -0.60170        1.26500
O         -0.11920       -1.21850        2.20340
H          0.74140        2.14180        0.39780
H         -0.26240        1.92010       -1.05940
H         -0.99830        1.82640        0.54570
H         -0.73040       -0.45350       -0.35810
H          2.07540       -2.20290        0.11290
H          2.57000       -0.83590        2.32310
H          2.77800        1.04610        0.28510
H         -0.12650       -0.67770        3.00070
