20
gdb 12567	3.21026	1.79477	1.27349	1.6326	71.36	-0.2435	0.0824	0.3259	1003.6061	0.178374	-386.132945	-386.124983	-386.124039	-386.165071	30.298
C          0.35050        1.64040        0.00870
C         -0.09040        0.17160        0.05460
C          0.25400       -0.54500       -1.26260
O         -0.42640       -1.77760       -1.39640
C          0.17350       -2.92400       -0.82720
C          0.93250       -2.69950        0.48690
O          0.23440       -1.89430        1.41200
C          0.51570       -0.51190        1.28840
H          1.43440        1.72690       -0.13400
H         -0.13640        2.17370       -0.81360
H          0.09860        2.16060        0.93840
H         -1.18280        0.12460        0.14620
H         -0.08710        0.07190       -2.10190
H          1.34430       -0.66150       -1.37560
H         -0.65250       -3.62340       -0.65930
H          0.87180       -3.39880       -1.53900
H          1.09180       -3.67980        0.95320
H          1.92760       -2.27110        0.29200
H          1.60960       -0.35540        1.28930
H          0.11910       -0.04620        2.19680
