19
gdb 7795	3.17107	1.72328	1.20926	2.5796	71.73	-0.2119	-0.0138	0.1981	1018.8969	0.16702	-365.08969	-365.081807	-365.080863	-365.121865	30.052
C         -0.00270        1.56980        0.01880
C          0.00780        0.03940       -0.01580
C          0.69630       -0.50960       -1.27990
N          0.75910       -1.96920       -1.34660
C          1.42420       -2.55800       -0.17860
C          0.85020       -2.06710        1.15140
O          0.54390       -2.81800        2.04870
C          0.68350       -0.55610        1.23990
H          1.01860        1.96870        0.01700
H         -0.52410        1.98270       -0.85120
H         -0.50340        1.94280        0.91800
H         -1.03410       -0.31350       -0.03310
H          0.18260       -0.14530       -2.17650
H          1.72640       -0.12630       -1.32820
H         -0.18280       -2.34420       -1.41440
H          1.35550       -3.64780       -0.21510
H          2.49010       -2.28760       -0.21860
H          1.69170       -0.12270        1.33140
H          0.13700       -0.31400        2.15580
