12
gdb 1597	3.98481	2.34624	1.57705	4.0183	52.23	-0.2601	0.0068	0.2669	735.0894	0.088374	-360.505528	-360.498134	-360.49719	-360.53703	26.775
N         -0.08470        1.25820        0.03170
C          0.02480       -0.08130       -0.10330
O          1.04630       -0.66830       -0.40950
C         -1.28440       -0.90140        0.07860
O         -0.95800       -2.26280        0.09970
C         -2.02170       -0.48480        1.27410
C         -2.63300       -0.10940        2.23870
H          0.75540        1.81190       -0.02120
H         -0.89300        1.65070        0.48630
H         -1.90890       -0.67050       -0.80310
H         -0.01020       -2.28190       -0.12620
H         -3.17660        0.19880        3.09800
