16
gdb 15933	3.52715	1.90559	1.51423	2.9182	65.2	-0.2531	-0.037	0.2161	855.0907	0.130218	-383.711391	-383.704225	-383.703281	-383.743217	26.33
O         -0.25890        0.11690       -0.24310
C         -0.03570        1.25290        0.09720
C          1.29950        1.91540        0.02830
C          1.61580        3.08150        1.00560
C          2.04600        3.99600       -0.18120
C          1.72730        2.85390       -1.17210
O          2.84820        2.01840       -1.47340
C          2.50700        1.07910       -0.42240
H         -0.85540        1.90620        0.47800
H          0.72340        3.44370        1.52460
H          2.37830        2.85520        1.75470
H          1.41620        4.88050       -0.30600
H          3.09440        4.29920       -0.20530
H          1.11020        3.06570       -2.04960
H          3.31460        0.96120        0.30950
H          2.22460        0.10360       -0.83040
