18
gdb 18268	4.25001	1.60644	1.32946	1.2093	67.18	-0.2316	0.0791	0.3107	958.3332	0.154244	-384.90956	-384.90201	-384.901065	-384.941567	28.295
C          0.03170        1.30770       -0.15840
O         -0.00610       -0.06260        0.17200
C         -1.30810       -0.61330        0.16190
C         -1.85550       -0.84830       -1.27870
O         -2.58450       -2.06910       -1.26600
C         -2.12560       -2.84120       -0.18460
C         -0.65050       -3.09320       -0.04370
C         -1.32870       -1.99980        0.76810
H          1.06740        1.63840       -0.04890
H         -0.28830        1.50070       -1.19370
H         -0.60440        1.90490        0.51430
H         -1.98600        0.04430        0.72920
H         -2.52970       -0.06290       -1.63120
H         -0.99730       -0.90260       -1.96450
H         -2.85410       -3.58190        0.12270
H         -0.34830       -3.98510        0.49420
H          0.01970       -2.80370       -0.84500
H         -1.40920       -2.09600        1.84350
