18
gdb 14851	2.91995	1.59688	1.14215	0.7938	73.76	-0.2544	0.047	0.3014	1057.1586	0.152729	-347.753015	-347.744426	-347.743482	-347.786136	31.741
O         -0.07070        1.39500       -0.33490
C          0.01540       -0.02380       -0.33380
C         -1.32930       -0.55490        0.13210
C         -2.47500       -0.35130       -0.89770
C         -2.31330       -1.82600       -1.35060
C         -1.50910       -2.10780       -0.03860
C         -0.34380       -2.96720       -0.09790
C          0.62700       -3.67550       -0.16330
H          0.77210        1.74540       -0.63680
H          0.24930       -0.40960       -1.33890
H          0.80760       -0.38100        0.34100
H         -1.52200       -0.17860        1.14010
H         -3.43770       -0.16950       -0.41320
H         -2.30990        0.42720       -1.64450
H         -3.21800       -2.41860       -1.50040
H         -1.67960       -1.92880       -2.23410
H         -2.18970       -2.47330        0.73760
H          1.47990       -4.30560       -0.21630
