12
gdb 559	9.75537	2.43167	2.1475	2.8301	46.71	-0.2487	-0.0357	0.2129	575.5626	0.095537	-306.349558	-306.343561	-306.342617	-306.37988	19.792
O         -0.55350        0.87840       -1.04560
C          0.15090        0.74790       -0.07910
C          1.44960        1.49880        0.13010
C          1.33810        2.76020        1.03200
C          2.34700        2.01870        1.93170
O          2.31080        0.84950        1.08220
H         -0.11150        0.07460        0.76930
H          1.93530        1.66630       -0.83850
H          1.67770        3.68930        0.57510
H          0.35300        2.91610        1.47590
H          3.35020        2.45940        1.97180
H          2.01540        1.79250        2.95110
