16
gdb 637	6.01713	2.59419	2.00512	1.5102	56.58	-0.2585	0.0791	0.3376	658.5353	0.142089	-271.619912	-271.612845	-271.611901	-271.650485	25.76
C         -0.00470        1.46810       -0.11500
C          0.00010       -0.04430        0.11860
O          0.69790       -0.37690        1.31860
C         -1.39660       -0.62990        0.09610
C         -2.00100       -1.11090       -1.20040
C         -1.59170       -2.10270       -0.14030
H          1.01510        1.86120       -0.08860
H         -0.45510        1.71640       -1.08120
H         -0.58670        1.97670        0.66410
H          0.58790       -0.52590       -0.67350
H          0.20630        0.00220        2.05540
H         -2.08480       -0.15630        0.79530
H         -3.05790       -0.94030       -1.37240
H         -1.39210       -1.04650       -2.09680
H         -0.70410       -2.70100       -0.31720
H         -2.36990       -2.61690        0.41260
