17
gdb 17900	2.82986	2.32228	2.16962	3.4818	63.54	-0.2273	0.0611	0.2885	755.7439	0.144532	-400.958417	-400.951502	-400.950558	-400.989456	26.644
O         -0.03360        1.48540       -0.03350
C         -0.00040        0.08200        0.04180
C          0.13920       -0.64920        1.40510
C         -0.59770        0.13180        2.48800
O         -1.97750        0.28780        2.19640
C         -2.38200        0.14440        0.84190
C         -1.36420       -0.63280        0.01240
N         -0.80190       -1.71340        0.90270
H          0.86830        1.82050       -0.03410
H          0.68200       -0.35150       -0.70310
H          1.12200       -0.98520        1.74700
H         -0.53930       -0.40360        3.44250
H         -0.11500        1.11390        2.61010
H         -3.33490       -0.39690        0.85850
H         -2.54550        1.12870        0.38040
H         -1.78570       -0.95070       -0.94430
H         -0.26490       -2.35040        0.31560
