17
gdb 9168	3.82973	1.02369	0.82012	4.0128	74.63	-0.2366	0.0379	0.2745	1384.6757	0.140063	-363.878277	-363.868307	-363.867363	-363.915144	32.85
C          1.02570        1.25310       -0.40060
N          0.89220       -0.06170       -0.99240
C         -0.23060       -0.80980       -0.86200
O         -1.22360       -0.46460       -0.24810
C         -0.19810       -2.18720       -1.55870
C          1.02020       -2.53910       -2.27520
C          2.03530       -2.81550       -2.86370
C          3.25060       -3.17460       -3.58210
H          1.85470        1.28580        0.31530
H          1.19500        2.01930       -1.16550
H          0.09400        1.47180        0.12290
H          1.65240       -0.45410       -1.52580
H         -0.41660       -2.92470       -0.77770
H         -1.06350       -2.20470       -2.23140
H          3.16590       -4.17530       -4.01960
H          3.45520       -2.47370       -4.39880
H          4.12230       -3.17740       -2.91860
