20
gdb 12798	3.38758	1.98801	1.53262	0.2269	79.68	-0.2338	0.0319	0.2657	913.3723	0.1788	-311.881573	-311.874156	-311.873212	-311.912674	29.91
C         -0.28780        1.54250        0.19270
C          0.07280        0.08400       -0.00250
C         -0.73210       -0.94930        0.75220
C          0.69750       -0.66490        1.15490
C          1.77480       -1.70900        0.91860
C          1.83820       -2.19740       -0.50260
C          1.28180       -1.56100       -1.53160
C          0.52510       -0.26600       -1.41570
H          0.57270        2.19470        0.00040
H         -1.09180        1.84660       -0.48900
H         -0.63070        1.73360        1.21460
H         -1.52900       -0.60340        1.40260
H         -0.93350       -1.89470        0.25840
H          0.82360       -0.09590        2.07260
H          2.75430       -1.28910        1.19390
H          1.62670       -2.56100        1.59740
H          2.38990       -3.11810       -0.67630
H          1.38780       -1.96850       -2.53430
H         -0.34490       -0.28120       -2.08850
H          1.16310        0.54780       -1.79560
