19
gdb 19909	4.56686	1.50425	1.37005	0.8499	75.62	-0.2089	0.0689	0.2778	987.8404	0.165336	-327.825551	-327.818058	-327.817114	-327.8573	29.488
C          0.72880        1.59790       -0.22830
C         -0.02990        0.27030       -0.16610
N          0.44050       -0.52110        0.97250
C         -0.25380       -1.26520        1.97940
C         -1.31360       -2.31870        1.49610
C         -1.51080       -2.39210        0.00720
C         -0.25820       -2.96320        0.61200
C          0.79050       -1.90290        1.10490
H          1.80310        1.42270       -0.33850
H          0.38710        2.20150       -1.07640
H          0.57520        2.17260        0.68990
H         -1.10410        0.46810       -0.07140
H          0.12460       -0.28230       -1.10040
H         -0.19200       -0.94850        3.01600
H         -1.98210       -2.80920        2.19190
H         -2.22840       -3.15000       -0.29700
H         -1.51520       -1.52240       -0.63220
H         -0.00900       -4.01400        0.53920
H          1.81620       -2.17500        1.33410
