14
gdb 21121	5.26276	1.60159	1.23743	1.8548	71.97	-0.2182	-0.0467	0.1715	927.6236	0.108923	-374.87341	-374.866318	-374.865373	-374.904989	25.555
C         -0.04140        1.41740       -0.04990
N         -0.00260       -0.03460       -0.01570
C          0.57730       -0.60640        0.97900
C          1.23460        0.00690        2.13510
N          1.79230       -0.67810        3.08840
N          1.74920       -2.00460        2.98320
N          1.19280       -2.73180        1.99980
C          0.63330       -2.06190        1.04290
H          0.96310        1.86750       -0.07140
H         -0.56560        1.73920       -0.95320
H         -0.57320        1.84730        0.81290
H          1.28610        1.08320        2.24890
H          2.18390       -2.52470        3.72640
H          0.17990       -2.63710        0.24180
