16
gdb 13919	3.50163	1.88011	1.53775	3.2576	65.12	-0.2287	-0.0323	0.1964	866.3551	0.129851	-383.725911	-383.71852	-383.717576	-383.758264	26.896
O         -0.10840        0.00380        0.03960
C         -0.08830        1.19740       -0.02050
C         -1.14560        2.29080       -0.27650
C          0.02840        3.26900       -0.57910
C          1.04470        2.25530        0.01180
C          1.76800        2.49650        1.36180
C          3.03230        2.10130        0.57400
O          2.27850        2.00020       -0.65590
H         -1.85330        2.08120       -1.08130
H         -1.71030        2.53600        0.62850
H          0.19710        3.39580       -1.65110
H         -0.00480        4.24930       -0.10060
H          1.73960        3.53340        1.70140
H          1.48460        1.83250        2.17960
H          3.82200        2.85720        0.50500
H          3.47410        1.13950        0.85610
