20
gdb 18640	2.75124	2.1321	1.74139	1.3845	74.31	-0.2429	0.0817	0.3246	886.8457	0.178153	-349.004857	-348.997071	-348.996126	-349.036399	30.383
C         -0.19990        1.53570       -0.13840
C          0.02230        0.04150       -0.00390
C          1.35360       -0.64180       -0.21710
C          2.60960        0.19550       -0.04060
O          2.46110        0.88770        1.19660
C          1.64390        0.09920        2.06860
C          1.01720        1.00860        3.11630
C          0.70330       -0.66710        1.14960
H          0.65090        2.11190        0.22640
H         -0.36700        1.79940       -1.18910
H         -1.08880        1.84920        0.42060
H         -0.80900       -0.54040       -0.39780
H          1.41540       -1.52400       -0.84460
H          3.49450       -0.46130       -0.02180
H          2.76540        0.95220       -0.81770
H          2.27650       -0.64520        2.58580
H          0.34580        1.73950        2.66010
H          0.44470        0.41330        3.83470
H          1.79630        1.54700        3.66380
H          0.25260       -1.57120        1.54460
