15
gdb 2402	5.99239	2.13664	1.98122	3.1388	61.45	-0.2386	0.0126	0.2511	696.0142	0.125693	-308.484017	-308.477824	-308.47688	-308.513806	23.78
C         -0.13860        1.56000        0.00550
C          0.03720        0.04760        0.03010
C          1.20010       -0.64280       -0.78400
C          2.17830       -0.16320        0.34380
C          0.91770       -0.64420        1.14270
C          0.94630       -1.82690        0.16200
O          0.83780       -3.01350        0.14520
H          0.78970        2.11860        0.14140
H         -0.57480        1.86980       -0.95000
H         -0.82990        1.86860        0.79670
H         -0.93750       -0.42990       -0.11310
H          1.36020       -0.63380       -1.86030
H          3.09930       -0.73320        0.47830
H          2.37430        0.90710        0.37330
H          0.76220       -0.63680        2.21970
