15
gdb 10159	2.54994	1.29502	0.90234	2.4939	62.9	-0.2797	-0.0535	0.2261	1208.0351	0.116433	-399.810058	-399.800915	-399.79997	-399.84512	30.252
O         -0.13500        1.44190        0.13310
C          0.02600        0.04260       -0.00660
C         -1.37090       -0.56770        0.06060
C         -1.36160       -2.11580       -0.02940
C         -2.80840       -2.61910        0.10450
O         -3.27940       -2.96180        1.15180
C         -0.77710       -2.58990       -1.28370
N         -0.34460       -2.97080       -2.28570
H          0.72370        1.85940        0.01870
H          0.50140       -0.21900       -0.96350
H          0.65120       -0.37590        0.79930
H         -1.84030       -0.28900        1.00870
H         -1.98150       -0.14970       -0.74660
H         -0.79680       -2.52910        0.81300
H         -3.39600       -2.59930       -0.83740
