13
gdb 14570	20.13846	0.61083	0.59721	4.6917	79.41	-0.2806	-0.0446	0.236	1704.0783	0.093899	-324.283198	-324.274784	-324.27384	-324.316745	28.872
C          0.02170       -1.22090       -0.00490
C         -0.02220       -0.02030        0.00210
C         -0.03370        1.43550        0.01000
C          1.40660        2.01970       -0.00050
C          1.41600        3.47170        0.00720
C          1.39690        4.67980        0.01390
C          1.38390        6.04490        0.02160
N          1.37170        7.20650        0.02820
H          0.04070       -2.28280       -0.01070
H         -0.58010        1.81480       -0.86070
H         -0.56340        1.80540        0.89490
H          1.95590        1.64410        0.87050
H          1.93930        1.65350       -0.88570
