14
gdb 815	6.62487	1.97278	1.54898	1.3282	64.84	-0.2178	-0.0249	0.1929	764.0667	0.114241	-324.555069	-324.548544	-324.5476	-324.585842	23.956
O         -0.10080        1.35470        0.00880
N          0.03320       -0.04820        0.00390
C         -1.10720       -0.62580        0.01120
C         -1.23300       -2.14260        0.00810
C         -2.76370       -2.40470        0.01880
C         -3.37190       -1.02460        0.02740
C         -2.45180       -0.05110        0.02310
H          0.81760        1.64270        0.00240
H         -0.75010       -2.57050       -0.87460
H         -0.73710       -2.57510        0.88120
H         -3.09320       -2.97880       -0.85590
H         -3.08000       -2.98390        0.89500
H         -4.44480       -0.86550        0.03610
H         -2.63500        1.01350        0.02750
