11
gdb 957	6.19703	2.7938	1.92566	1.3708	53.65	-0.2607	-0.0323	0.2284	601.9424	0.082009	-339.501781	-339.49673	-339.495786	-339.530512	19.055
O          0.10530        1.33290        0.10040
C          0.07100       -0.00640        0.06310
N          0.09200       -0.59480       -1.12950
C          0.05660       -1.93010       -1.12650
N          0.00290       -2.73120       -0.06770
C         -0.01700       -2.10690        1.12070
C          0.01520       -0.73160        1.25680
H          0.14140        1.62960       -0.82080
H          0.07380       -2.40930       -2.10270
H         -0.06090       -2.74560        1.99970
H         -0.00110       -0.23420        2.21760
