19
gdb 15180	10.61176	0.68431	0.68322	2.7734	80.42	-0.2261	0.0252	0.2512	1712.8795	0.163732	-365.047521	-365.038385	-365.037441	-365.082487	31.982
C          0.01450        1.49650       -0.03190
C         -0.08750       -0.01420       -0.12830
O          0.81650       -0.45070       -1.14610
C          0.85490       -1.77940       -1.36810
N          1.62030       -2.26130       -2.24500
C          1.61690       -3.66960       -2.43360
C          1.83720       -4.18140       -3.83880
C          2.92750       -4.32190       -2.81020
H          1.03370        1.79700        0.22530
H         -0.25040        1.96090       -0.98550
H         -0.66510        1.87040        0.73950
H          0.17540       -0.48500        0.82930
H         -1.11140       -0.32070       -0.38400
H          0.17850       -2.37110       -0.73200
H          0.94410       -4.25330       -1.80020
H          1.29390       -5.06760       -4.14740
H          1.96560       -3.42970       -4.60830
H          3.78440       -3.66410       -2.89250
H          3.13970       -5.30540       -2.40590
