16
gdb 2531	3.60536	1.88102	1.32418	3.2293	60.84	-0.283	0.0266	0.3096	909.2744	0.136003	-325.794835	-325.786562	-325.785618	-325.827489	28.763
C         -0.04900        1.56330        0.02870
C          0.01240        0.03470       -0.00040
C          0.74680       -0.53420       -1.23270
C          0.87660       -2.07640       -1.17650
O          1.59120       -2.60820       -2.26650
C          0.07540       -0.16490       -2.48280
N         -0.46230        0.07350       -3.47870
H          0.95520        2.00040        0.03620
H         -0.57900        1.95500       -0.84490
H         -0.57210        1.91170        0.92360
H          0.53340       -0.33630        0.88990
H         -1.00080       -0.38220        0.03190
H          1.76210       -0.11990       -1.27620
H          1.44240       -2.33850       -0.27740
H         -0.12690       -2.51830       -1.08310
H          1.07200       -2.46440       -3.06620
