18
gdb 11949	3.50334	1.59915	1.3636	2.292	68.21	-0.2346	0.0619	0.2965	973.256	0.152614	-384.895382	-384.887074	-384.88613	-384.928204	30.786
C          0.01950        1.54850        0.00870
C          0.05450        0.04950        0.06430
C          1.25610       -0.80100       -0.31820
C          0.65080       -0.94180        1.04600
C          1.33630       -0.86720        2.37210
O          1.96840       -2.09330        2.71030
O         -0.49290       -1.81280        0.97270
C         -1.16680       -0.86830        0.09770
H          0.99330        1.97730        0.26530
H         -0.23560        1.90080       -0.99810
H         -0.72170        1.95970        0.70320
H          1.16380       -1.61610       -1.03150
H          2.19540       -0.25720       -0.35920
H          2.12330       -0.10700        2.34170
H          0.60900       -0.57170        3.14420
H          1.28800       -2.77500        2.67740
H         -2.03120       -0.42360        0.60620
H         -1.48970       -1.32860       -0.84420
