19
gdb 2856	6.20363	1.27572	1.17202	1.3906	68.23	-0.2571	0.0792	0.3363	1062.5686	0.17088	-310.902465	-310.89399	-310.893045	-310.935426	30.41
C         -0.28460        1.54360        0.22600
C          0.16970        0.11650       -0.10410
C          0.86660       -0.54810        1.06810
C          0.08760       -1.28710        2.13000
C          1.02560       -2.04460        1.22130
C          0.49460       -3.03290        0.21710
O          0.30940       -4.27580        0.88600
H          0.56750        2.17460        0.50220
H         -0.78190        2.01130       -0.62950
H         -0.98410        1.54670        1.06840
H         -0.70040       -0.47510       -0.41040
H          0.84440        0.14030       -0.97040
H          1.71520        0.02660        1.43450
H          0.35610       -1.16200        3.17310
H         -0.97660       -1.42410        1.96010
H          1.95960       -2.37260        1.66990
H         -0.45310       -2.67430       -0.21230
H          1.20910       -3.14040       -0.61560
H          0.04660       -4.92870        0.23040
