17
gdb 17117	6.61295	1.15697	1.05299	3.0677	70.84	-0.2578	0.0321	0.2899	1120.5977	0.142821	-363.851576	-363.844164	-363.84322	-363.883791	27.813
N          0.01570        1.09450        0.59220
C         -0.02310       -0.02290        0.02460
C         -1.12060       -1.00110       -0.33310
C          0.03160       -1.82850       -0.94970
O          0.98800       -0.79190       -0.51220
C          0.33780       -3.17220       -0.37420
C         -0.15890       -4.40920       -1.08770
C          1.31120       -4.08780       -1.07380
H          0.97220        1.45010        0.63990
H         -1.61580       -1.46220        0.52370
H         -1.87200       -0.62080       -1.02630
H          0.02220       -1.86460       -2.04430
H          0.33580       -3.20110        0.71200
H         -0.51820       -5.23310       -0.48210
H         -0.69980       -4.27550       -2.01890
H          1.76440       -3.73470       -1.99400
H          1.96780       -4.69240       -0.45900
