15
gdb 4915	6.71673	1.24645	1.06514	2.4648	62.53	-0.22	0.0282	0.2482	1073.3452	0.119097	-399.841106	-399.833545	-399.832601	-399.873264	27.584
C         -0.87780        0.91790       -0.04100
C          0.55810        0.38900       -0.06400
C          1.01720       -0.18130        1.23820
C          0.36360       -0.29810        2.41600
O          1.22720       -0.89850        3.32430
C          2.34980       -1.09660        2.60260
O          3.37840       -1.67100        3.22430
N          2.31100       -0.70670        1.37680
H         -0.99450        1.71820        0.69720
H         -1.15700        1.32140       -1.01800
H         -1.58950        0.12410        0.20890
H          0.66490       -0.38290       -0.83680
H          1.25140        1.18840       -0.35550
H         -0.61350       -0.04670        2.78570
H          3.11980       -1.85320        4.13570
