15
gdb 2836	5.07836	1.79142	1.47163	3.127	62.66	-0.2566	0.0126	0.2692	837.8304	0.124874	-304.683044	-304.675713	-304.674769	-304.714583	26.011
C          0.26760        1.55730        0.08020
C         -0.24190        0.13640       -0.13790
N          0.49790       -0.49760       -1.23340
C          1.71230       -1.21160       -0.89440
C          0.48710       -1.96140       -1.33230
C         -0.21710       -2.77080       -0.36650
N         -0.80520       -3.42450        0.38560
H          1.32050        1.55660        0.38070
H          0.17680        2.14600       -0.83670
H         -0.30780        2.04930        0.86960
H         -0.17080       -0.44210        0.79700
H         -1.29850        0.15070       -0.42590
H          2.54420       -1.11330       -1.58570
H          1.98510       -1.30030        0.15610
H          0.42990       -2.34670       -2.34660
