15
gdb 18204	4.29101	1.70657	1.41393	3.1575	64.03	-0.254	0.0291	0.2831	864.3754	0.120746	-362.660087	-362.653462	-362.652518	-362.690988	25.207
N         -0.45520       -1.06270       -0.63410
C         -0.23180        0.02850       -0.32530
C          0.04520        1.40380        0.07890
C         -0.34400        1.67350        1.56860
O          0.52690        2.69620        2.02170
C          1.72320        2.61450        1.29020
C          2.40850        1.28210        1.14770
C          1.51730        1.81020        0.03730
H         -0.51960        2.07380       -0.57860
H         -1.37330        2.02020        1.68150
H         -0.22160        0.75600        2.15740
H          2.28530        3.53900        1.33170
H          3.47590        1.29350        0.95820
H          2.07390        0.43990        1.74350
H          1.94390        2.08680       -0.91830
