16
gdb 18352	3.30566	2.4187	1.68347	2.8271	64.68	-0.2481	0.0069	0.255	781.7714	0.132663	-383.724766	-383.718344	-383.7174	-383.755264	25.332
O         -0.06860        1.43160        0.12690
C          0.04800        0.02980       -0.01250
C          0.75600       -0.64920        1.14690
C          0.03830       -1.62660        1.69970
C         -1.30890       -1.79330        1.04640
C         -2.46220       -1.00340        1.71090
O         -2.29370        0.09220        0.77750
C         -1.33820       -0.66550       -0.01200
H         -0.83090        1.56310        0.70980
H          0.57970       -0.13900       -0.95750
H          1.74020       -0.32760        1.46870
H          0.34820       -2.23190        2.54540
H         -1.54240       -2.81380        0.73720
H         -3.45320       -1.46080        1.60330
H         -2.31290       -0.68840        2.74920
H         -1.73320       -0.88350       -1.00810
