15
gdb 20361	6.25108	1.44388	1.29205	3.1104	67.11	-0.2427	0.015	0.2577	934.9114	0.122313	-358.860928	-358.854335	-358.853391	-358.892344	24.456
C          0.85940        1.47230        0.35950
C          0.97250        0.31080       -0.57840
C         -0.26990        0.46100        0.28060
C         -0.47420       -0.46470        1.40240
N          0.46230       -0.99970        2.17270
C         -0.25220       -1.76710        3.04090
N         -1.56200       -1.75120        2.86890
N         -1.68410       -0.90700        1.81050
H          1.45750        1.44800        1.26260
H          0.67380        2.45880       -0.04980
H          0.86590        0.48600       -1.64290
H          1.64630       -0.49200       -0.30390
H         -1.17970        0.77660       -0.21980
H          0.20750       -2.35490        3.82150
H         -2.59690       -0.69500        1.44280
