14
gdb 21656	3.41491	2.03574	1.28581	1.8498	60.72	-0.1935	0.0463	0.2398	884.6033	0.108805	-412.044308	-412.036128	-412.035184	-412.076356	29.853
N          0.00370        1.37160       -0.12490
C          0.03670       -0.02330       -0.06310
N         -1.06330       -0.76270       -0.03830
N         -0.59750       -2.05360       -0.03380
C          0.75450       -2.12810       -0.07080
N          1.45550       -3.33420       -0.14400
C          1.20680       -0.82350       -0.08450
O          2.52480       -0.42460       -0.03450
H          0.68510        1.79620        0.49310
H         -0.92250        1.72340        0.08530
H         -1.24920       -2.80690       -0.16020
H          1.24450       -3.96180        0.62460
H          2.45180       -3.14690       -0.14340
H          2.73190        0.04400       -0.85120
