15
gdb 11095	8.3537	0.969	0.93239	1.3871	67.02	-0.2655	-0.0403	0.2252	1175.4963	0.118505	-362.673889	-362.666137	-362.665193	-362.706871	27.157
O          0.04470       -0.09680       -0.17050
C          0.00410        1.08950        0.02420
C          1.20450        1.99940        0.04870
C          1.01900        3.27390       -0.83830
C          0.67090        4.09920        0.44010
C          1.23630        2.92960        1.30540
C          1.27640        5.41110        0.58940
N          1.77990        6.44570        0.70460
H         -0.97060        1.60530        0.20580
H          2.09920        1.40510       -0.13750
H          1.96180        3.58910       -1.28690
H          0.25090        3.24050       -1.61360
H         -0.41110        4.19470        0.56510
H          0.63400        2.63320        2.16660
H          2.25800        3.11950        1.63610
