20
gdb 8317	5.36917	0.94352	0.93544	1.2168	72.38	-0.2439	0.0799	0.3238	1347.2419	0.17546	-386.116522	-386.107354	-386.10641	-386.151262	32.243
C         -0.51880        1.37830        0.23040
O         -0.57890       -0.00500        0.48150
C         -0.70810       -0.77360       -0.69250
C         -0.74680       -2.23530       -0.28850
C         -2.04720       -2.79480        0.31980
C         -1.99960       -3.79410       -0.85790
C         -3.18140       -3.87790       -1.80110
O         -0.86730       -3.09500       -1.44220
H         -0.41790        1.88290        1.19440
H          0.34460        1.64100       -0.40120
H         -1.43050        1.74350       -0.26870
H         -1.62880       -0.51190       -1.24120
H          0.14090       -0.60520       -1.37710
H          0.15220       -2.47010        0.29750
H         -1.97770       -3.21450        1.32360
H         -2.88750       -2.09720        0.27690
H         -1.69480       -4.80370       -0.54700
H         -3.50890       -2.87920       -2.10630
H         -2.91440       -4.44160       -2.70080
H         -4.02110       -4.38770       -1.31570
