16
gdb 2323	7.05835	1.31104	1.20923	3.2446	62.31	-0.2396	-0.0187	0.2209	980.7986	0.135416	-325.761605	-325.75375	-325.752806	-325.794518	27.143
C          0.10530        1.53840       -0.25030
C         -0.06820        0.08220        0.10690
N          1.11780       -0.78520        0.02050
C          0.48170       -0.56350        1.33300
C          1.31320        0.15110        2.38200
C          2.37120       -0.77010        2.95460
O          2.52800       -0.99350        4.12770
H          1.07660        1.91890        0.07250
H          0.04540        1.67160       -1.33570
H         -0.68020        2.14910        0.20780
H         -1.00750       -0.34660       -0.24170
H          0.87640       -1.70030       -0.34850
H         -0.11290       -1.38290        1.73550
H          1.83430        0.99760        1.91970
H          0.69060        0.52680        3.19940
H          3.01460       -1.24870        2.18300
