22
gdb 12533	3.13018	1.71231	1.20368	0.2447	83.19	-0.2338	0.0246	0.2584	1073.6925	0.202344	-313.091895	-313.083721	-313.082777	-313.124151	32.067
C         -0.11500        1.55720        0.01470
C          0.01050        0.02670        0.00110
C          0.64280       -0.43780       -1.32310
C          0.61880       -1.95560       -1.58570
C          1.57380       -2.77320       -0.74910
C          1.63220       -2.78010        0.58230
C          0.75450       -1.97180        1.50780
C          0.75610       -0.45130        1.26010
H          0.87270        2.03210       -0.02620
H         -0.69080        1.91760       -0.84430
H         -0.61330        1.90830        0.92450
H         -1.00740       -0.39230        0.04360
H          0.10460        0.05490       -2.14310
H          1.67960       -0.07930       -1.37600
H         -0.40950       -2.31970       -1.43750
H          0.84150       -2.12680       -2.64410
H          2.26360       -3.41290       -1.29550
H          2.36690       -3.42520        1.05950
H         -0.28300       -2.33480        1.44640
H          1.06900       -2.15390        2.54080
H          1.79380       -0.09300        1.22560
H          0.29200        0.03260        2.12910
