20
gdb 20125	4.30223	1.24837	1.10556	1.5444	75.11	-0.2634	0.073	0.3364	1145.1188	0.176637	-348.973252	-348.964624	-348.963679	-349.006702	32.309
O         -0.21530        1.50490        0.11800
C         -0.08910        0.08800       -0.00590
C          0.69770       -0.30240       -1.23920
C          0.31890       -1.53260       -2.02710
C          0.07680       -0.16110       -2.60410
C          0.49490       -0.54100        1.25260
C          1.56180        0.16480        2.05300
C          0.16700        0.01280        2.61110
H          0.63070        1.89570       -0.12280
H         -1.12100       -0.27060       -0.12580
H          1.76410       -0.09670       -1.16190
H          1.11370       -2.13930       -2.44640
H         -0.54300       -2.10190       -1.69390
H         -0.94580        0.19830       -2.65060
H          0.70240        0.17050       -3.42530
H          0.59220       -1.62100        1.17880
H          2.36400       -0.42810        2.47790
H          1.85980        1.16180        1.74640
H         -0.44550        0.90660        2.63870
H          0.00740       -0.68090        3.42910
