18
gdb 14950	4.46294	1.32032	1.09818	1.5637	68.69	-0.2455	-0.024	0.2215	1065.6053	0.154952	-384.959021	-384.951467	-384.950523	-384.991374	28.076
O         -0.12280       -0.02280        0.00150
C         -0.02210        1.17650        0.00830
C          1.28060        1.94530       -0.00020
C          1.37020        2.84380       -1.25240
C          2.60470        3.74570       -1.17390
O          2.61340        4.52710        0.00730
C          2.63130        3.72530        1.17450
C          1.39880        2.82190        1.26530
H         -0.92950        1.82820        0.02240
H          2.09200        1.20850       -0.01570
H          1.41210        2.23350       -2.16130
H          0.47430        3.47420       -1.31910
H          3.51950        3.13020       -1.22790
H          2.62510        4.45150       -2.00910
H          3.54700        3.10910        1.19710
H          2.67080        4.41640        2.02130
H          0.50470        3.45080        1.36330
H          1.46120        2.19570        2.16220
