14
gdb 704	8.59504	2.64585	2.63113	2.8886	53.03	-0.2328	0.0704	0.3032	550.0663	0.121976	-266.553159	-266.547497	-266.546553	-266.582241	20.774
C          0.28950        1.44090        0.22930
N          1.15430        0.33400       -0.21960
C         -0.27330        0.08180        0.01870
C         -0.59270       -0.83070        1.16620
C          0.04870       -2.16630        1.24570
N          0.42830       -1.09640        2.18600
H          0.48940        1.78780        1.23910
H          0.03300        2.22290       -0.48000
H          1.34730        0.40940       -1.21350
H         -0.91450       -0.04330       -0.85290
H         -1.59920       -0.71220        1.56410
H         -0.48330       -3.00460        1.68660
H          0.75430       -2.42710        0.46100
H          1.30310       -0.68990        1.85240
