16
gdb 13189	4.46545	1.31067	1.23022	2.9139	61.11	-0.2481	-0.0472	0.2009	998.0601	0.129278	-420.854294	-420.846351	-420.845407	-420.887415	27.982
O         -0.19210        1.41420        0.12100
C         -0.03950        0.02670        0.01330
C          0.73090       -0.32280       -1.24480
O          1.15230        0.53010       -1.98810
C          0.65530       -0.56670        1.24600
C          1.97260        0.09100        1.71670
O          1.42730        0.34240        3.02550
C          0.12220       -0.12100        2.62740
H          0.24700        1.79030       -0.65850
H         -1.02800       -0.46170       -0.08230
H          0.89220       -1.40230       -1.44200
H          0.72290       -1.65340        1.14200
H          2.85640       -0.55630        1.75450
H          2.22210        1.02120        1.19180
H         -0.60630        0.69660        2.58380
H         -0.25220       -0.91550        3.28340
