20
gdb 10235	2.29584	1.15321	0.81764	1.4887	67.56	-0.2556	0.0664	0.322	1386.6392	0.175084	-423.256771	-423.246479	-423.245535	-423.292522	35.87
O         -1.89700        1.40250        1.58250
C         -1.79990       -0.01160        1.52280
C         -1.47210       -0.51990        0.11710
C         -1.38980       -2.04990       -0.00880
C         -2.77210       -2.70410       -0.03370
O         -2.59890       -4.11270        0.05320
C         -0.58530       -2.45780       -1.25460
O          0.75570       -1.98640       -1.22740
H         -1.05570        1.76420        1.28500
H         -1.05030       -0.39190        2.23710
H         -2.77430       -0.38140        1.85910
H         -2.21620       -0.12120       -0.58520
H         -0.50050       -0.11010       -0.18580
H         -0.86300       -2.45430        0.86960
H         -3.38240       -2.33270        0.80290
H         -3.29150       -2.42310       -0.96540
H         -3.46330       -4.52860       -0.01150
H         -0.62620       -3.54690       -1.37560
H         -1.03750       -2.00630       -2.14630
H          1.22360       -2.48030       -0.54650
