18
gdb 7357	3.40616	1.26618	1.02628	3.7066	65.51	-0.2617	-0.029	0.2327	1176.4243	0.150397	-422.080484	-422.070859	-422.069915	-422.115399	33.307
C         -0.88140        1.25620       -0.43440
O         -1.39800       -0.05190       -0.31460
C         -0.59840       -0.88510        0.48480
C         -1.19610       -2.28000        0.59410
O         -0.77920       -3.05040        1.43300
C         -2.29910       -2.71900       -0.36370
C         -1.76860       -2.79160       -1.80750
O         -2.80640       -3.96180        0.04870
H         -1.57060        1.81970       -1.06660
H         -0.80640        1.75140        0.54550
H          0.11600        1.25690       -0.89980
H          0.42000       -0.98760        0.06970
H         -0.48560       -0.48950        1.50660
H         -3.09260       -1.95890       -0.32310
H         -0.92880       -3.49090       -1.87020
H         -2.56760       -3.16300       -2.45360
H         -1.45430       -1.80720       -2.16090
H         -2.21070       -4.26270        0.75330
