18
gdb 2683	7.89908	1.01069	0.91643	2.8928	68.61	-0.2421	0.0279	0.27	1281.9666	0.158042	-326.971392	-326.962327	-326.961383	-327.005753	30.223
C         -0.19380        1.26780        0.09330
C         -0.26900       -0.09790       -0.59600
C          1.08680       -0.50620       -1.18860
N          1.20950       -1.77550       -1.88320
C          0.22360       -2.54350       -2.00620
O          0.36420       -3.72090       -2.65820
C         -0.81090       -4.51450       -2.74170
H          0.53590        1.25880        0.91030
H          0.10920        2.05020       -0.61110
H         -1.16150        1.55610        0.51460
H         -0.60290       -0.85410        0.12630
H         -1.02780       -0.06620       -1.38860
H          1.41860        0.27480       -1.88760
H          1.83940       -0.50560       -0.38720
H         -0.79240       -2.36660       -1.62940
H         -1.17970       -4.79800       -1.74780
H         -1.61080       -3.99770       -3.28700
H         -0.53510       -5.41720       -3.28830
