15
gdb 15741	3.10258	2.00349	1.27493	1.5563	65.39	-0.2424	-0.0109	0.2315	915.9561	0.119694	-395.980822	-395.973148	-395.972204	-396.013239	27.409
N          0.45440        1.49880        1.00290
C          0.10270        0.34340        0.58950
N         -1.28300        0.11220        0.51800
C         -2.00950       -1.00980        0.19910
O         -1.58930       -2.07640       -0.17930
N          0.91610       -0.74270        0.29420
C          1.05160       -1.31770       -1.03290
C          2.18170       -0.57220       -0.39740
H          1.46860        1.57700        1.03340
H         -1.80540        0.92050        0.82600
H         -3.09060       -0.80460        0.32970
H          1.04470       -2.40080       -1.06960
H          0.53200       -0.82720       -1.85140
H          2.41450        0.41600       -0.78920
H          3.02310       -1.10970        0.02940
