19
gdb 5107	3.326	1.97803	1.27008	2.0121	80.08	-0.1829	0.0494	0.2322	989.8518	0.165408	-327.976309	-327.967534	-327.96659	-328.009566	31.869
C          0.09340        1.41550        0.00860
N         -0.00400       -0.02830        0.00190
C         -0.01280       -0.82070       -1.13320
C         -0.00900       -0.24930       -2.51300
C         -0.02720       -2.13290       -0.71980
C         -0.01950       -2.14050        0.70120
C         -0.00010       -0.83280        1.12850
C          0.01930       -0.27670        2.51440
H          1.13590        1.75950       -0.00180
H         -0.41170        1.82940       -0.86660
H         -0.39060        1.81930        0.90020
H          0.87430        0.37060       -2.71430
H         -0.00940       -1.06460       -3.24020
H         -0.89150        0.37130       -2.71840
H         -0.04880       -2.99090       -1.37520
H         -0.03400       -3.00540        1.34760
H          0.90520        0.34040        2.71300
H         -0.86040        0.34210        2.73650
H          0.02630       -1.10010        3.23240
