16
gdb 18921	3.4437	2.62115	2.02321	3.1384	67.61	-0.2301	-0.0032	0.2269	716.5583	0.133233	-346.586766	-346.581112	-346.580167	-346.616282	23.549
O          0.00950        0.10390        0.05140
C         -0.01020        1.30290        0.01730
C         -1.18210        2.28250       -0.04110
C         -0.95330        2.99050        1.33350
C          0.31270        3.53610        0.64590
C         -0.40570        3.48500       -0.73680
C          0.87830        2.94300       -1.39360
C          1.12890        2.32220        0.01890
H         -2.15150        1.91040       -0.36370
H         -1.68110        3.78650        1.51350
H         -0.86540        2.35970        2.22400
H          0.88330        4.39250        1.00250
H         -1.00370        4.30050       -1.14100
H          0.81180        2.26010       -2.24660
H          1.57970        3.75100       -1.61910
H          2.10970        2.00100        0.36120
