16
gdb 5908	4.0326	1.2702	1.21395	4.6399	71.03	-0.2587	0.0194	0.2781	1035.4829	0.128431	-342.761297	-342.752211	-342.751266	-342.794556	33.129
C          0.02570        1.55360        0.04430
C          0.04260        0.01540        0.02240
N          0.74110       -0.45760        1.22740
C         -1.40850       -0.55220        0.06450
C         -2.17060       -0.10500        1.22810
N         -2.79970        0.25310        2.12850
C          0.66820       -0.46530       -1.22290
C          1.19390       -0.88330       -2.22070
H          1.04680        1.94060       -0.01570
H         -0.53420        1.94810       -0.80710
H         -0.43130        1.90310        0.97300
H          0.88920       -1.46180        1.16850
H          1.66570       -0.03790        1.26610
H         -1.94110       -0.25770       -0.84510
H         -1.36670       -1.64660        0.06710
H          1.66540       -1.24510       -3.10130
