15
gdb 5166	5.29579	1.37688	1.16879	0.9021	69.81	-0.2069	-0.0295	0.1775	991.1093	0.119752	-362.70942	-362.702017	-362.701072	-362.74254	26.488
O         -0.61030        1.60340        0.84070
C          0.06980        1.16580       -0.05400
C          1.49080        1.63000       -0.33130
C          1.43110        2.72790       -1.35170
C          1.96860        2.84300       -2.61590
C          1.57990        4.10820       -3.13630
C          0.80910        4.72600       -2.17870
N          0.72470        3.88250       -1.10180
H         -0.33780        0.43230       -0.78400
H          1.93260        1.97120        0.61220
H          2.08920        0.80560       -0.72900
H          2.58350        2.10160       -3.10340
H          1.84060        4.51870       -4.09940
H          0.31840        5.68590       -2.17210
H          0.19040        4.04600       -0.26430
