7
gdb 322	6.60238	2.92418	2.0266	3.7814	44.9	-0.3156	-0.121	0.1947	539.3608	0.036304	-282.861121	-282.855418	-282.854474	-282.890406	18.651
O         -0.02580       -0.07610        0.00330
C          0.00080        1.13120        0.00630
C          1.20040        1.92540        0.00010
C          2.20040        2.59450       -0.00500
C         -1.24360        1.92070        0.01790
N         -2.22390        2.53360        0.02700
H          3.08770        3.18130       -0.00940
