18
gdb 18106	3.54009	2.25032	1.7202	1.3697	71.68	-0.2378	0.023	0.2608	809.8807	0.157044	-347.826035	-347.819559	-347.818614	-347.856831	25.676
C         -0.02950        1.35400        0.10680
C          1.37550        1.95190        0.01370
C          2.25840        0.75030        0.41580
C          2.43170        0.56780        1.90500
C          1.93130       -0.58470        2.34700
C          1.35140       -1.42110        1.23480
C          1.39820       -0.48600       -0.00210
O          0.10520        0.01350       -0.35120
H         -0.39880        1.38040        1.14360
H         -0.76450        1.85300       -0.53140
H          1.58950        2.25440       -1.01620
H          1.51560        2.82100        0.66220
H          3.22540        0.78430       -0.09770
H          2.91360        1.31940        2.52190
H          1.94880       -0.91640        3.37990
H          1.94220       -2.33300        1.07400
H          0.32130       -1.74410        1.42180
H          1.78350       -1.00530       -0.88470
