21
gdb 6551	3.04908	1.56015	1.40281	2.4895	74.77	-0.2438	0.0682	0.3119	1030.9142	0.186463	-366.240648	-366.231008	-366.230064	-366.274326	36.302
C          3.26990       -0.23950       -0.39210
C          2.04710       -1.06400       -0.06650
N          2.14040       -2.03030        1.03530
C          1.19090       -0.90990        1.14960
C          1.37880        0.14810        2.25490
C          0.06760        0.26850        3.04940
C          2.53540       -0.17450        3.20020
O          1.69530        1.42800        1.68380
H          3.76770        0.12350        0.50580
H          3.98220       -0.84020       -0.96870
H          2.99600        0.63190       -0.99570
H          1.50480       -1.39890       -0.95210
H          1.65360       -2.89380        0.81260
H          0.14180       -1.15980        0.98610
H         -0.19520       -0.68090        3.52820
H          0.16350        1.03600        3.82180
H         -0.76210        0.55020        2.38940
H          3.47590       -0.28530        2.65990
H          2.64020        0.63440        3.92890
H          2.34730       -1.11170        3.72890
H          1.02010        1.63090        1.02750
