20
gdb 10515	3.09406	1.24286	1.00151	1.3562	70.67	-0.2564	0.075	0.3314	1225.9723	0.175248	-386.118097	-386.108647	-386.107702	-386.152688	33.947
C          0.08250        1.31200        0.64840
C         -0.01290       -0.07410       -0.00160
C         -1.38810       -0.71320        0.11890
C         -2.52420        0.01330       -0.58500
C         -3.89190       -0.67420       -0.53340
O         -4.91670        0.13840       -1.08540
C         -1.46290       -2.15410        0.41480
O         -1.69120       -1.18720        1.44500
H          1.11130        1.68220        0.61590
H         -0.54690        2.04890        0.14020
H         -0.22750        1.26450        1.69670
H          0.25800       -0.01200       -1.06340
H          0.71410       -0.74270        0.47180
H         -2.62610        1.00660       -0.12640
H         -2.24710        0.18700       -1.63180
H         -3.88750       -1.58350       -1.14260
H         -4.11740       -0.96680        0.50160
H         -5.02950        0.90040       -0.50850
H         -2.33290       -2.74060        0.12680
H         -0.54040       -2.72650        0.50880
