16
gdb 5745	4.79633	1.83083	1.43156	4.2829	71.1	-0.2134	0.0425	0.256	870.783	0.13315	-342.792718	-342.786031	-342.785087	-342.823667	25.375
C         -0.34460        1.61690       -0.22410
C          0.00110        0.15200       -0.03590
C          0.77600       -0.57820       -1.20290
C          1.89170       -0.76530       -0.18560
C          3.07870       -1.17180        0.37030
N          3.10050       -0.76200        1.69000
C          1.96210       -0.13500        1.93320
N          1.20680       -0.11720        0.80060
H          0.52330        2.17960       -0.58030
H         -1.15110        1.71900       -0.95730
H         -0.68440        2.06480        0.71500
H         -0.86330       -0.41420        0.32380
H          0.29790       -1.49070       -1.56730
H          1.00670        0.06850       -2.05390
H          3.90550       -1.71340       -0.06060
H          1.67020        0.30620        2.87290
