20
gdb 11029	4.03506	1.70961	1.42937	0.2222	80.1	-0.2229	0.023	0.2459	963.7268	0.177577	-311.87637	-311.868542	-311.867598	-311.907822	31.073
C         -0.16350        1.58990        0.02890
C          0.03120        0.06620        0.01280
C          0.81750       -0.45050       -1.18020
C          1.81130       -1.26470       -0.82160
C          1.91530       -1.41100        0.66610
C          2.28210       -2.74620        1.26920
C          2.27360       -0.11210        1.36570
C          0.82140       -0.49840        1.19920
H          0.79780        2.11190        0.05690
H         -0.70290        1.92650       -0.86300
H         -0.74160        1.89990        0.90550
H         -0.97040       -0.39060        0.00530
H          0.58480       -0.15130       -2.19700
H          2.49860       -1.75910       -1.50080
H          3.29780       -3.04590        0.98400
H          2.24620       -2.70770        2.36250
H          1.59820       -3.53620        0.93850
H          2.67810       -0.18260        2.37130
H          2.68710        0.69490        0.77010
H          0.27670       -0.76810        2.09770
