15
gdb 12681	2.77363	2.3838	1.5341	3.8591	56.72	-0.2711	0.002	0.2731	821.0405	0.120779	-436.972447	-436.965371	-436.964426	-437.00369	26.794
N          0.07140        1.35700        0.36390
C         -0.04390        0.00660       -0.15880
C         -1.46310       -0.58380       -0.02440
O         -2.41600        0.43740       -0.16510
C         -1.51320       -1.51270       -1.24320
O         -0.65760       -0.91150       -2.24070
C          0.14610        0.01150       -1.67960
O          0.88600        0.72200       -2.30000
H          0.49680        1.37170        1.28280
H          0.65470        1.90160       -0.26650
H          0.69420       -0.69870        0.25320
H         -1.60780       -1.14680        0.90890
H         -1.95770        1.24600        0.12680
H         -1.13710       -2.51620       -1.01590
H         -2.51870       -1.57860       -1.66070
