21
gdb 15433	3.26032	1.24891	1.04043	1.9909	76.62	-0.2175	0.0795	0.2969	1236.9569	0.187219	-366.218324	-366.208793	-366.207849	-366.252979	33.756
C          0.29550        1.65650       -0.03080
C         -0.22700        0.22680       -0.14880
N          0.48580       -0.47890       -1.21420
C          1.71470       -1.18840       -0.86450
C          0.48690       -1.93920       -1.24810
C         -0.25390       -2.82080       -0.26160
O          0.19960       -2.63220        1.06210
C         -0.47910       -3.44540        1.99090
H          1.35170        1.66240        0.25870
H          0.20560        2.18050       -0.98670
H         -0.26490        2.21220        0.72760
H         -0.15100       -0.28640        0.82000
H         -1.28930        0.24540       -0.42410
H          2.54270       -1.08660       -1.56160
H          1.99390       -1.23470        0.18550
H          0.41860       -2.33710       -2.26060
H         -1.33980       -2.62660       -0.32140
H         -0.10510       -3.87190       -0.56420
H         -0.34670       -4.51510        1.76490
H         -0.05770       -3.23700        2.97700
H         -1.55900       -3.23050        2.01110
