13
gdb 18664	3.55673	2.41197	1.587	3.5319	60.15	-0.2304	-0.0243	0.2061	757.2199	0.097699	-398.62208	-398.616035	-398.615091	-398.652197	23.451
O          0.02380       -0.01860       -0.15150
C          0.01050        1.18530        0.00020
N         -1.16960        1.89360        0.15320
C         -1.28870        3.27580        0.07900
C         -0.23080        4.08690       -0.05040
C          1.12460        3.51080       -0.01080
O          1.47830        2.79970        1.19230
C          1.25440        2.02810        0.01390
H         -2.00250        1.32340        0.14820
H         -2.30770        3.64170        0.11490
H         -0.36570        5.15650       -0.13590
H          1.94520        4.08790       -0.43120
H          2.12760        1.52400       -0.39350
