22
gdb 6986	2.30238	2.22534	1.55839	1.502	77.31	-0.2358	0.0758	0.3116	968.8294	0.199692	-350.22859	-350.219635	-350.218691	-350.261589	34.359
C         -0.23260        1.51590       -0.06950
C          0.06090        0.01720       -0.02740
C          0.98980       -0.49760       -1.13670
C          1.40410       -1.86080       -0.58210
O          1.43090       -1.72380        0.83500
C          0.75180       -0.52060        1.25830
C          1.81320        0.42850        1.83180
C         -0.25800       -0.91000        2.33930
H          0.68590        2.11030       -0.04590
H         -0.77060        1.77590       -0.98690
H         -0.85650        1.82820        0.77500
H         -0.89300       -0.51990       -0.11980
H          0.49780       -0.56560       -2.11090
H          1.85900        0.16140       -1.24690
H          0.67750       -2.63650       -0.87110
H          2.39270       -2.18830       -0.92310
H          2.52100        0.74990        1.06210
H          1.36220        1.31930        2.28000
H          2.37990       -0.09580        2.60640
H          0.25310       -1.33370        3.20900
H         -0.83170       -0.03850        2.67320
H         -0.95650       -1.65940        1.95610
