15
gdb 20007	3.88319	1.49897	1.23746	4.6625	62.69	-0.2434	-0.0234	0.2201	965.8992	0.118028	-399.748423	-399.740887	-399.739942	-399.781003	26.83
O         -0.35350        0.27200        0.42870
C          0.29600        0.75370       -0.46720
C          1.36910        1.76530       -0.21920
N          2.38810        1.90830       -1.28030
C          1.51320        3.03560       -1.01830
C          0.57120        3.47310       -2.10060
C          0.92650        3.35030       -3.52250
O         -0.02310        2.47030       -2.91490
H          0.15590        0.47720       -1.52790
H          1.67930        1.81990        0.82210
H          3.30830        2.04820       -0.87410
H          1.91140        3.87540       -0.44810
H         -0.10960        4.27170       -1.80210
H          0.51490        4.05030       -4.24720
H          1.87550        2.88660       -3.78120
