16
gdb 19313	7.09024	0.80728	0.80317	2.2213	77.09	-0.2387	0.0249	0.2636	1441.1948	0.129785	-346.534819	-346.526805	-346.525861	-346.568875	28.361
C         -0.16870        1.34310       -0.24720
C          1.21370        1.03910        0.24360
C          0.22080       -0.09840        0.04690
C         -0.33440       -0.77490        1.18050
C         -0.80720       -1.34320        2.13410
C         -1.34810       -2.05190        3.25950
C         -1.88770       -1.35010        4.44150
O         -2.76520       -1.95530        3.50270
H         -0.86320        1.81290        0.43860
H         -0.30400        1.61370       -1.28810
H          2.03950        1.09850       -0.45620
H          1.46300        1.30200        1.26450
H          0.39120       -0.72640       -0.82280
H         -0.95240       -3.05550        3.41380
H         -1.82960       -1.83150        5.41730
H         -1.88670       -0.26160        4.45170
