16
gdb 3049	8.77999	1.21604	1.13227	3.7887	62.81	-0.2472	0.0338	0.281	1026.5195	0.137255	-325.789564	-325.782058	-325.781114	-325.822285	26.35
O         -0.16220        0.40190       -0.78440
C          0.03210        1.24390        0.06690
N          1.23850        1.55110        0.61270
C          2.48820        0.92630        0.20280
C          3.53520        1.94760       -0.17800
C          4.37430        2.60660        0.89330
C          4.99590        1.60730       -0.05030
H         -0.77960        1.86420        0.49770
H          1.27800        2.28990        1.29720
H          2.87410        0.28720        1.00960
H          2.23850        0.27540       -0.63870
H          3.25570        2.57380       -1.02070
H          4.63040        3.65380        0.77880
H          4.22260        2.29680        1.92300
H          5.25680        0.63160        0.34660
H          5.67480        1.97000       -0.81340
