20
gdb 8180	2.70728	2.43477	1.69535	1.2681	73.85	-0.2535	0.0757	0.3292	861.2897	0.178735	-349.002872	-348.995508	-348.994564	-349.033744	30.287
C         -0.08410        1.53450        0.06230
C          0.06790        0.01560        0.03940
C          0.99910       -0.56020       -1.07920
C          1.98180       -1.36640       -0.20370
C          2.30380       -0.35690        0.93390
C          0.79350       -0.58700        1.26200
O          0.19750       -0.23260        2.46960
C          1.02260       -2.06120        0.80470
H          0.88510        2.04160        0.11600
H         -0.58900        1.88670       -0.84350
H         -0.67530        1.85030        0.92680
H         -0.93170       -0.42970       -0.02310
H          0.46240       -1.18980       -1.79490
H          1.50320        0.23260       -1.64180
H          2.77170       -1.92130       -0.70780
H          2.95950       -0.78420        1.69840
H          2.64260        0.64710        0.66590
H          0.70320       -0.62680        3.18720
H          0.16700       -2.62040        0.41390
H          1.55690       -2.65440        1.55270
