16
gdb 8059	3.46788	1.84314	1.55312	2.8481	65.56	-0.2447	-0.0257	0.2189	854.6095	0.129804	-383.694546	-383.687257	-383.686313	-383.726124	27.553
O          0.44790        1.08030        0.38140
C          0.22140       -0.25800        0.13700
C          0.62360       -1.11280       -1.10640
C         -0.24220       -2.03440       -0.19840
C          0.56580       -1.49540        1.02140
C         -1.22570       -0.83830       -0.03900
C         -2.20230       -0.76380        1.09990
O         -2.34190       -1.59440        1.96470
H          1.39310        1.21320        0.51360
H          0.19680       -0.81520       -2.06760
H          1.68090       -1.37860       -1.19140
H         -0.51780       -3.06760       -0.38790
H          1.62210       -1.77740        1.05260
H          0.09240       -1.57030        1.99830
H         -1.71430       -0.49060       -0.95760
H         -2.83270        0.15510        1.08980
