19
gdb 1317	3.31117	2.4551	2.0606	1.7334	66.82	-0.2382	0.0794	0.3176	771.9296	0.169999	-310.916474	-310.908323	-310.907379	-310.948378	30.284
C         -0.39860        1.42780       -0.04300
C          0.07140       -0.01860       -0.07670
C          1.41560       -0.34390       -0.75670
O          1.87700       -1.08440        0.38730
C          0.71940       -0.68440        1.18250
C          1.15470        0.25070        2.30590
C         -0.00880       -1.90840        1.71990
H          0.38540        2.10600        0.30740
H         -0.69450        1.75690       -1.04530
H         -1.26830        1.55190        0.61140
H         -0.73280       -0.65340       -0.46140
H          1.37950       -0.96130       -1.66210
H          2.04480        0.53570       -0.95780
H          1.72200        1.10150        1.92040
H          0.29260        0.63260        2.86340
H          1.79920       -0.29170        3.00490
H          0.62290       -2.44960        2.43220
H         -0.93090       -1.61660        2.23520
H         -0.26650       -2.59170        0.90590
