14
gdb 8511	3.95376	2.12192	1.65053	3.277	57.	-0.2271	0.0608	0.2879	763.4052	0.105323	-419.568356	-419.56153	-419.560586	-419.59884	26.807
O         -0.03390        1.32540        0.07040
C          0.06540       -0.04220        0.06820
C          0.78530       -0.97530        1.07200
C          0.08810       -1.94250        0.08470
O          0.14490       -3.31110        0.02280
C         -1.15630       -0.98900       -0.10760
O         -1.08800       -1.02050       -1.55990
C          0.30690       -1.01990       -1.14860
H          0.85160        1.70210        0.02560
H          1.87940       -0.97100        1.05420
H          0.41020       -0.96220        2.09980
H         -0.18150       -3.67440        0.85320
H         -2.12970       -0.97140        0.38190
H          1.08840       -1.04210       -1.90750
