16
gdb 11775	4.69959	1.68634	1.53635	3.111	68.81	-0.2512	0.0182	0.2695	847.2237	0.134035	-342.76587	-342.759567	-342.758623	-342.796172	25.04
N          0.01820       -1.15530       -0.02500
C         -0.00040        0.00110       -0.02380
C         -0.00390        1.44630        0.00180
C         -0.27630        2.28300        1.28970
N          0.44450        3.40350        0.57490
C          1.29440        2.31020       -0.03180
C         -0.50590        3.64910       -0.54970
C         -0.87980        2.20060       -1.02380
H         -1.31450        2.48810        1.56230
H          0.29460        1.94830        2.15690
H          2.05790        1.97880        0.67350
H          1.73630        2.54090       -1.00420
H         -1.36700        4.21280       -0.18490
H         -0.01070        4.23620       -1.32600
H         -0.58390        1.98790       -2.05350
H         -1.94040        1.96450       -0.91220
