16
gdb 20910	3.22238	1.98703	1.3476	2.6705	66.89	-0.2138	0.0406	0.2544	918.052	0.13159	-379.944174	-379.936336	-379.935392	-379.977099	28.392
C         -0.00630        1.55450        0.13890
C         -0.04750        0.03800       -0.05510
N         -1.40150       -0.48760       -0.06600
N         -2.08320       -0.66080        1.10030
C         -3.27720       -1.10170        0.72660
C         -3.39850       -1.21690       -0.67530
C         -2.16350       -0.80470       -1.13730
O         -1.63030       -0.67360       -2.37490
H          1.03070        1.90120        0.18300
H         -0.50600        2.06830       -0.68770
H         -0.50600        1.82900        1.07130
H          0.42000       -0.24920       -1.00000
H          0.48370       -0.46710        0.75600
H         -4.02010       -1.32990        1.47750
H         -4.24200       -1.54850       -1.25860
H         -2.27130       -0.98950       -3.01880
