16
gdb 15753	5.21043	1.03326	0.98282	3.0445	67.97	-0.2475	-0.0373	0.2102	1197.322	0.12838	-383.755749	-383.747388	-383.746444	-383.790469	28.895
O          0.71800       -0.23770       -0.14270
C          0.35620        0.87730       -0.40760
C          1.08330        2.13540        0.05000
C          1.13970        3.17050       -1.07370
O          0.11840        3.49810       -1.64500
C          2.46890        3.72630       -1.43780
C          2.70130        4.05860       -2.91000
C          2.50500        5.16630       -1.93960
H         -0.54990        1.08110       -1.01400
H          0.47250        2.57580        0.85040
H          2.05850        1.86820        0.46050
H          3.31890        3.37400       -0.86620
H          3.69350        3.86770       -3.30160
H          1.87800        3.82240       -3.57400
H          1.54910        5.67720       -1.95030
H          3.35750        5.76550       -1.64190
