18
gdb 19091	3.65162	2.46151	2.37655	1.5201	69.39	-0.2365	0.0746	0.311	707.0444	0.158323	-347.743999	-347.738678	-347.737734	-347.772988	23.834
C         -0.01790        1.54210       -0.05900
C          1.53450        1.37770        0.01750
C          1.22220        0.18200        0.96680
C         -0.00330       -0.01850        0.02520
C          0.51600       -0.52190       -1.38360
C          2.04850       -0.74100       -1.37560
C          1.97770        0.80540       -1.39100
O          0.77090        0.66140       -2.20750
H         -0.41450        1.98390        0.85770
H         -0.45100        2.01420       -0.93610
H          2.16450        2.20000        0.36150
H          1.94870       -0.61730        1.10810
H          0.90490        0.53690        1.95080
H         -0.88040       -0.56480        0.37680
H         -0.15190       -1.23380       -1.87200
H          2.54710       -1.28580       -0.57620
H          2.38020       -1.11180       -2.34640
H          2.74790        1.39920       -1.88660
