16
gdb 14069	3.69063	1.62731	1.37613	4.411	65.55	-0.2686	0.0098	0.2784	935.9926	0.13041	-383.756411	-383.748898	-383.747954	-383.788263	27.624
C         -0.07150        1.50950       -0.08260
C          0.04820        0.00340       -0.02700
C          1.37730       -0.67440       -0.20300
C          0.71860       -0.65950        1.15170
C          1.17320       -0.11250        2.49750
O          0.63320       -1.31510        3.14170
C          0.21840       -1.83710        1.93210
O         -0.33450       -2.87110        1.73130
H          0.82120        1.99610        0.32410
H         -0.19210        1.85000       -1.11620
H         -0.93630        1.86270        0.48880
H         -0.81020       -0.54330       -0.40900
H          1.41720       -1.62770       -0.71880
H          2.25580       -0.04840       -0.32670
H          2.25100       -0.03930        2.66050
H          0.66430        0.78250        2.86370
