16
gdb 16304	3.75279	1.65015	1.39812	1.9512	66.53	-0.2495	-0.0312	0.2183	916.4205	0.128866	-383.71227	-383.704682	-383.703738	-383.744059	28.087
C         -0.05160        1.57200       -0.22870
C          0.07830        0.08530        0.02200
O          1.14340       -0.54940       -0.75480
C          1.66990       -1.16160        0.40820
C          2.15870       -0.18100        1.39960
C          0.66120       -0.44360        1.33780
C         -0.08300       -1.03880        2.45200
O          0.42140       -1.50530        3.44870
H          0.85980        2.10870        0.04660
H         -0.25310        1.75780       -1.28810
H         -0.88560        1.97820        0.35340
H         -0.86530       -0.42910       -0.20580
H          1.93380       -2.21230        0.36710
H          2.60880       -0.59920        2.29390
H          2.55420        0.77150        1.06220
H         -1.18780       -1.05590        2.30680
