12
gdb 3794	8.01989	2.08471	1.67573	1.8419	51.81	-0.2306	-0.0091	0.2215	701.4606	0.091707	-356.69264	-356.686363	-356.685419	-356.722954	21.761
C          0.02520        1.43030        0.06610
N         -0.09200       -0.00690       -0.10240
C          0.58840       -0.64170       -1.09140
N          1.18610       -0.02080       -2.08840
O          1.68540       -1.09750       -2.86350
C          1.33630       -2.20600       -2.22320
N          0.66640       -2.02430       -1.13240
H          1.04150        1.74640        0.33820
H         -0.24190        1.92840       -0.86940
H         -0.66980        1.75250        0.84380
H         -0.24450       -0.56990        0.71850
H          1.63810       -3.14540       -2.66430
