22
gdb 14740	9.95526	0.5274	0.51032	0.1804	88.67	-0.2392	0.0651	0.3043	2226.9078	0.197848	-313.062573	-313.051695	-313.050751	-313.10038	36.759
C         -0.03400        1.60330       -0.01430
C         -0.00170        0.07250       -0.00370
C          0.72570       -0.50710        1.21440
C          0.76090       -2.03780        1.22950
C          1.49580       -2.60510        2.46120
C          1.53600       -4.06350        2.48800
C          1.55380       -5.26770        2.48320
C          1.58350       -6.72370        2.48910
H          0.97910        2.02070       -0.02320
H         -0.55920        1.98670       -0.89470
H         -0.54310        1.99470        0.87360
H         -1.02830       -0.31640       -0.03020
H          0.48240       -0.29070       -0.92000
H          1.75350       -0.11780        1.24170
H          0.24180       -0.14370        2.13220
H         -0.26100       -2.43580        1.21170
H          1.25080       -2.40990        0.32150
H          2.51990       -2.20740        2.48500
H          1.01020       -2.23290        3.37390
H          2.11410       -7.10840        3.36750
H          0.57190       -7.14480        2.50530
H          2.08990       -7.11750        1.60040
