20
gdb 14523	3.6163	1.66717	1.3868	1.6301	74.47	-0.2438	0.0863	0.3302	980.5545	0.177001	-348.977646	-348.969451	-348.968507	-349.010297	30.916
C          0.11800        1.56270        0.33520
C         -0.01410        0.08940        0.00400
C          0.91190       -0.51230       -1.02340
C          1.07850       -0.85460        0.44010
C         -1.43780       -0.41510        0.06990
C         -2.40580       -0.05430       -1.08500
C         -2.58770       -1.57770       -1.21300
O         -1.56800       -1.82790       -0.22150
H          1.16310        1.88230        0.28540
H         -0.45200        2.18570       -0.36470
H         -0.24840        1.77850        1.34620
H          0.52030       -1.29400       -1.66420
H          1.64480        0.13750       -1.49010
H          1.92470       -0.43980        0.97790
H          0.78740       -1.85330        0.74440
H         -1.85520       -0.19260        1.06430
H         -3.29310        0.52070       -0.81690
H         -1.91060        0.41330       -1.93820
H         -3.56580       -1.95620       -0.88930
H         -2.33620       -2.02690       -2.18050
