15
gdb 19144	3.87041	1.63812	1.33477	2.9424	61.8	-0.2616	-0.0419	0.2196	912.9	0.118036	-399.752589	-399.745053	-399.744109	-399.784912	26.939
O         -0.30510        0.43790        1.19630
C         -0.24970        1.44370        0.52900
C          1.02170        1.95360       -0.07480
C          2.18200        2.02170        0.88310
N          2.13010        0.99200       -0.14150
C          0.88120        2.94970       -1.18320
C          1.79570        2.96770       -2.32910
O          0.47640        2.43190       -2.45410
H         -1.15420        2.05340        0.32420
H          2.92770        2.79690        0.72960
H          1.98690        1.74630        1.91560
H          1.79560        0.12200        0.27520
H          0.37790        3.87720       -0.90280
H          1.97090        3.90470       -2.85580
H          2.59700        2.23450       -2.36300
