14
gdb 21639	6.5728	1.69602	1.38353	2.495	64.8	-0.2067	0.0204	0.2271	854.7875	0.110547	-374.890717	-374.884235	-374.88329	-374.921326	24.419
N          0.06180        1.33520        0.29740
C          0.00050       -0.00890        0.00540
N         -1.14680       -0.69980        0.05840
N         -0.65040       -1.96420       -0.11510
C         -0.88620       -3.27800       -0.75350
C          0.68820       -3.35780       -0.89980
C          0.65760       -1.93590       -0.36010
N          1.15420       -0.71860       -0.29050
H          0.84540        1.80160       -0.13480
H         -0.81480        1.82160        0.17990
H         -1.37410       -4.01000       -0.10610
H         -1.40930       -3.20620       -1.71040
H          1.18170       -4.10610       -0.27680
H          1.03530       -3.45120       -1.93050
