15
gdb 8024	3.4852	2.04853	1.55855	4.6781	61.57	-0.2379	0.0083	0.2462	827.2463	0.118784	-399.792159	-399.785086	-399.784142	-399.823262	26.679
C         -0.04100        1.57420       -0.04330
C          0.03850        0.06990        0.03730
C         -1.23040       -0.76940        0.33570
O         -0.54010       -1.54630        1.34030
C          0.67560       -0.78640        1.17540
C          1.56630       -1.41410        0.06700
O          2.38360       -2.28730       -0.01280
N          0.97910       -0.58760       -0.87970
H          0.95920        2.01610       -0.02820
H         -0.53510        1.89010       -0.96970
H         -0.61660        1.97880        0.79410
H         -2.05230       -0.19720        0.78270
H         -1.61100       -1.38280       -0.48850
H          1.10740       -0.42790        2.11050
H          0.92310       -0.71140       -1.88250
