17
gdb 1733	4.95298	1.75372	1.60123	0.5832	69.43	-0.2594	0.0529	0.3123	841.543	0.146566	-272.54227	-272.534451	-272.533507	-272.573883	29.432
C          0.02410        1.57610        0.30060
C         -0.01120        0.07810        0.07490
C         -1.35490       -0.46530       -0.41380
C         -1.75350        0.05460       -1.71950
C         -2.06750        0.49240       -2.79420
C          1.23510       -0.60600       -0.42670
C          0.78330       -0.80850        1.00230
H          1.01500        1.89970        0.63320
H         -0.21820        2.11630       -0.62040
H         -0.70040        1.87800        1.06680
H         -1.30870       -1.56050       -0.46190
H         -2.13410       -0.22630        0.32350
H         -2.35100        0.87210       -3.74420
H          1.12390       -1.43310       -1.12000
H          2.11520        0.00290       -0.60390
H          1.35530       -0.33390        1.79270
H          0.37120       -1.77460        1.27580
