22
gdb 16905	3.55679	1.69356	1.32564	0.2033	80.98	-0.258	0.0809	0.3389	1020.0188	0.203015	-313.082677	-313.074982	-313.074038	-313.114231	31.089
C          0.01410        1.57490        0.02380
C          0.01440        0.04430       -0.01560
C          0.67690       -0.50080       -1.28910
C          0.47790       -2.01850       -1.41540
C          0.84910       -2.78140       -0.15500
C          2.18380       -2.59150        0.51630
C          0.93150       -2.05250        1.17220
C          0.69290       -0.54320        1.23710
H          1.03760        1.96780       -0.00500
H         -0.52670        1.99540       -0.83080
H         -0.45830        1.95140        0.93780
H         -1.03130       -0.29850       -0.02180
H          0.25740       -0.00650       -2.17330
H          1.74680       -0.24870       -1.27930
H         -0.58210       -2.20740       -1.63370
H          1.04150       -2.40740       -2.27310
H          0.45000       -3.79160       -0.11740
H          2.66910       -3.45840        0.95200
H          2.87450       -1.86740        0.09370
H          0.58460       -2.60550        2.03970
H          1.64800       -0.02250        1.39420
H          0.07930       -0.31060        2.11480
