11
gdb 3042	14.6654	1.00395	0.99531	2.8374	60.29	-0.2735	-0.0725	0.201	1086.4849	0.076472	-343.197784	-343.190762	-343.189818	-343.229868	22.741
O         -0.07160       -0.03680        0.21710
C          0.00470        1.16320        0.08700
C          1.24260        1.89800        0.03440
C          2.25980        2.54840       -0.01640
C          3.48990        3.28450       -0.05850
C          3.82150        4.14750       -1.21470
O          3.40680        4.71570        0.01620
H         -0.89970        1.79800       -0.00320
H          4.31390        2.85430        0.50820
H          4.86980        4.28460       -1.47520
H          3.11100        4.22570       -2.03480
