17
gdb 8056	3.56008	1.81474	1.49536	4.1859	70.64	-0.2326	0.0153	0.248	891.608	0.141939	-363.821522	-363.814159	-363.813215	-363.853003	27.977
C         -0.07120        1.46560        0.03850
C          0.00960       -0.03170        0.07910
C          0.32970       -1.04570       -1.06960
C         -0.04960       -1.88730        0.18390
C          0.85030       -0.94290        1.02620
N         -1.17010       -0.92250        0.45730
C         -2.40350       -0.96500       -0.13790
O         -2.99090       -1.97710       -0.45650
H          0.91350        1.88420       -0.19200
H         -0.77080        1.80890       -0.72990
H         -0.39520        1.86300        1.00520
H         -0.37720       -1.07720       -1.90070
H          1.36850       -1.09550       -1.40770
H         -0.19190       -2.96130        0.27030
H          1.92250       -0.98620        0.82840
H          0.61380       -0.87360        2.08860
H         -2.86090        0.04380       -0.20980
