18
gdb 19465	4.62548	1.60135	1.55499	2.5575	71.82	-0.2476	-0.0223	0.2253	886.7945	0.15582	-347.804143	-347.797385	-347.796441	-347.835157	26.456
O         -0.79750        0.99790        0.58030
C          0.10400        1.06300       -0.22000
C          1.30770        1.95400       -0.12610
C          1.15430        3.35870       -0.83390
C          0.44660        3.82610        0.46750
C          1.46050        2.85180        1.13670
C          2.80570        3.54870        0.85100
C          2.57420        3.93030       -0.65250
H          0.09280        0.42270       -1.13370
H          2.18510        1.37730       -0.44780
H          0.69220        3.45230       -1.81730
H          0.51790        4.88760        0.72240
H         -0.58210        3.48010        0.55310
H          1.28990        2.44620        2.13290
H          2.95680        4.42420        1.48870
H          3.66230        2.88240        0.98810
H          3.30200        3.46690       -1.32450
H          2.59950        5.01040       -0.82350
