19
gdb 7176	2.35006	1.38102	0.96259	2.5243	69.04	-0.2509	0.0305	0.2814	1230.2707	0.163974	-402.224584	-402.214757	-402.213813	-402.260225	33.964
C          0.18730        1.80340       -0.22320
C          0.06280        0.29230       -0.01030
C          0.69380       -0.49940       -1.16640
C          0.44950       -2.00210       -1.09810
O          1.06590       -2.58060       -2.24110
N          0.64010       -0.07150        1.28490
C          0.03350       -0.89910        2.17410
O         -1.02920       -1.46000        1.99910
H          1.23920        2.10970       -0.27890
H         -0.29110        2.10020       -1.16070
H         -0.28630        2.35260        0.59530
H         -0.99490        0.02210        0.06780
H          0.28640       -0.12790       -2.11390
H          1.77580       -0.31590       -1.19810
H          0.87020       -2.41300       -0.16900
H         -0.63250       -2.20250       -1.07830
H          0.92440       -3.53090       -2.20590
H          1.53250        0.32470        1.53840
H          0.62770       -1.01060        3.10350
