21
gdb 17824	4.34331	1.27222	1.09479	1.2559	79.64	-0.2194	0.0824	0.3018	1156.5337	0.189191	-329.082391	-329.074039	-329.073095	-329.115528	31.395
C          2.97380       -0.75300        0.41370
N          1.63140       -1.31000        0.48420
C          1.35950       -2.29480        1.52310
C          0.73740       -0.93800        1.58520
C          1.09310        0.04290        2.67040
C          0.80260        1.55730        2.44300
C          0.32740        1.65140        3.91710
C          0.16360        0.10780        3.91970
H          3.49680       -0.68080        1.38020
H          3.57840       -1.38650       -0.24370
H          2.93040        0.24770       -0.02860
H          0.78250       -3.16640        1.22340
H          2.14990       -2.50310        2.24520
H         -0.30010       -0.84940        1.25770
H          2.12850       -0.09340        2.99540
H          1.63260        2.19340        2.12550
H         -0.02740        1.69530        1.74200
H          1.13320        1.97360        4.58320
H         -0.55730        2.25620        4.12880
H         -0.85920       -0.18890        3.66430
H          0.47120       -0.44500        4.81070
