22
gdb 7218	3.31354	1.08907	0.86285	0.2123	87.4	-0.2402	0.0625	0.3027	1422.3991	0.197237	-313.062333	-313.051522	-313.050578	-313.099362	37.956
C         -0.05600        1.49760        0.02420
C         -0.00880        0.04170        0.00660
C          0.03720       -1.16240        0.00070
C          0.04760       -2.62750       -0.01940
C         -1.39540       -3.15620        0.12820
C          0.77420       -3.17170       -1.28510
C          2.21350       -2.64640       -1.36560
C          0.76700       -4.70590       -1.33880
H          0.73560        1.91570        0.65630
H          0.07110        1.91390       -0.98140
H         -1.01410        1.86140        0.41210
H          0.62170       -2.97540        0.85350
H         -1.98790       -2.91360       -0.76000
H         -1.41070       -4.23960        0.26990
H         -1.88190       -2.69420        0.99100
H          0.22220       -2.79280       -2.15630
H          2.81080       -3.01690       -0.52320
H          2.69880       -2.98340       -2.28730
H          2.24120       -1.55450       -1.34190
H          1.23070       -5.13270       -0.44070
H         -0.24150       -5.11840       -1.42480
H          1.34030       -5.05840       -2.20230
