15
gdb 9077	6.04865	0.91494	0.83783	0.7869	63.35	-0.2967	-0.0103	0.2863	1284.2312	0.11717	-399.836072	-399.827326	-399.826382	-399.870522	29.317
C          0.04620        1.49350       -0.23280
C          0.04140       -0.03220       -0.02880
C          0.66110       -0.79550       -1.21620
O         -0.13150       -0.55980       -2.37700
C          0.47940       -0.10950       -3.49660
O         -0.11300        0.09760       -4.50910
C          0.75600       -0.40820        1.19440
N          1.33870       -0.70570        2.14680
H          1.06830        1.87000       -0.33510
H         -0.51620        1.74430       -1.13460
H         -0.41840        1.99700        0.61750
H         -0.99500       -0.37570        0.07460
H          1.69580       -0.46870       -1.37940
H          0.66470       -1.87070       -1.01620
H          1.56780        0.03970       -3.35850
