17
gdb 9898	4.74131	0.88921	0.82829	2.1424	74.74	-0.2433	0.028	0.2713	1408.8688	0.140784	-363.798603	-363.789503	-363.788558	-363.833841	31.974
C         -0.18130        1.45060       -0.23500
C          0.01050       -0.03290        0.03250
C          0.88420       -0.81990       -0.89180
N          1.34920       -0.51230        0.46560
C         -1.10910       -0.68550        0.66800
C         -2.07660       -1.18500        1.18520
C         -3.21930       -1.85800        1.80080
O         -3.83470       -2.82380        0.95820
H          0.68900        1.86460       -0.75500
H         -1.06560        1.62290       -0.85570
H         -0.31820        1.99800        0.70290
H          0.66610       -1.86770       -1.07280
H          1.31800       -0.28900       -1.73600
H          1.99980        0.27030        0.43930
H         -2.90320       -2.30480        2.75710
H         -4.00270       -1.12950        2.03770
H         -3.14070       -3.41420        0.64660
