11
gdb 23695	3.86477	2.06305	1.34505	0.4995	56.98	-0.2474	-0.0589	0.1884	803.0993	0.07307	-438.720434	-438.714471	-438.713527	-438.750765	22.157
F          0.11200        0.10340        0.00230
C         -0.05710        1.39880        0.01120
N         -1.21980        1.90580        0.02980
C         -1.23680        3.29740        0.03700
C         -0.12450        4.05650        0.02540
C          1.17860        3.43300        0.00420
N          2.29580        4.01690       -0.00830
O          1.12350        2.00520       -0.00220
H         -2.22680        3.73900        0.05300
H         -0.15230        5.13700        0.03120
H          3.07140        3.35580       -0.02240
