17
gdb 9263	3.85581	1.09085	1.03598	2.4695	64.9	-0.2732	0.0045	0.2777	1176.4227	0.140359	-400.99653	-400.987328	-400.986384	-401.031581	31.925
C          0.39910        0.98090       -0.53800
C         -0.27140       -0.23100        0.10440
C          0.39360       -0.64470        1.41850
O          0.34150        0.38460        2.38700
O         -1.63660        0.05440        0.47410
C         -2.56820        0.08000       -0.57270
C         -2.79300       -1.25050       -1.17570
N         -2.95510       -2.29320       -1.64600
H          1.41500        0.72030       -0.85050
H         -0.13620        1.32600       -1.42730
H          0.45740        1.79850        0.18390
H         -0.25790       -1.09100       -0.58090
H         -0.08670       -1.56500        1.78200
H          1.45180       -0.86090        1.24090
H         -0.59120        0.59810        2.50470
H         -3.51310        0.43490       -0.14980
H         -2.28490        0.77470       -1.37600
