18
gdb 9357	7.71213	0.80881	0.7457	2.4503	66.62	-0.2608	0.0171	0.2779	1534.9037	0.150662	-422.09839	-422.088514	-422.08757	-422.134558	32.438
C         -0.03380        1.46070        0.04240
C          0.01730       -0.05560       -0.02000
O          0.69270       -0.43160       -1.20560
C          0.79400       -1.81370       -1.35930
C          1.52820       -2.12690       -2.65310
O          1.96340       -1.33140       -3.43840
O          1.62020       -3.46700       -2.79070
C          2.29340       -3.91400       -3.97400
H          0.97700        1.87780        0.04790
H         -0.56450        1.86170       -0.82550
H         -0.55120        1.78640        0.94960
H          0.54140       -0.46450        0.86070
H         -1.00100       -0.48050       -0.01300
H          1.34340       -2.28760       -0.52780
H         -0.19430       -2.30360       -1.39660
H          3.32200       -3.54490       -3.99540
H          2.27960       -5.00300       -3.93070
H          1.77590       -3.56000       -4.86930
