16
gdb 13915	3.61354	1.89616	1.54975	1.4128	65.56	-0.2359	0.0153	0.2512	854.002	0.132283	-379.893313	-379.886255	-379.885311	-379.924787	26.393
N          0.01570        1.19730       -0.32070
C          0.00900       -0.01120        0.01570
O          1.00280       -0.82050        0.52180
C          0.13410       -2.00090        0.46260
C         -1.03450       -1.11910       -0.02180
C         -2.36950       -0.92920        0.73970
C         -3.03200       -0.85450       -0.65770
N         -1.78470       -1.41230       -1.24620
H          0.93100        1.62730       -0.17670
H          0.49920       -2.72280       -0.27200
H          0.03080       -2.46260        1.44770
H         -2.65340       -1.81620        1.31000
H         -2.44000       -0.04440        1.37170
H         -3.91800       -1.47320       -0.82900
H         -3.24800        0.17580       -0.96130
H         -1.44310       -0.93320       -2.07340
