17
gdb 7075	6.63211	0.88151	0.83729	2.3954	71.92	-0.2346	-0.0297	0.2049	1334.233	0.138347	-363.812518	-363.803245	-363.802301	-363.846941	32.398
C         -0.11720        1.57660       -0.01070
N         -0.02370        0.12150        0.04340
C          0.66700       -0.32820        1.23860
C          2.15680       -0.02640        1.15970
O          2.85890        0.18270        2.11300
C         -1.32730       -0.52740       -0.11530
C         -1.93410       -0.27040       -1.41920
C         -2.45320       -0.06540       -2.48300
H          0.88480        2.01410        0.03520
H         -0.57950        1.87960       -0.95240
H         -0.71010        1.99710        0.82310
H          0.26910        0.08280        2.18390
H          0.58540       -1.42290        1.30350
H          2.55500       -0.04590        0.12000
H         -1.18170       -1.60830        0.00070
H         -2.04150       -0.22320        0.67550
H         -2.90730        0.11060       -3.42680
