12
gdb 4951	3.33548	2.52352	1.43662	4.5182	60.3	-0.2207	-0.0498	0.1709	781.6267	0.085862	-414.702156	-414.695793	-414.694848	-414.732776	23.908
N         -0.10410        1.22920       -0.42940
C         -0.03160        0.01880       -0.04360
N         -1.15510       -0.69580        0.31060
C         -1.09680       -2.01060        0.73190
C          0.07320       -2.64370        0.81100
O          1.26150       -2.02340        0.48040
C          1.28680       -0.73130        0.05760
O          2.32970       -0.21310       -0.22450
H          0.83790        1.56060       -0.63920
H         -2.03500       -0.20700        0.24700
H         -2.02890       -2.49150        0.98940
H          0.21520       -3.66410        1.12740
