12
gdb 21665	3.767	1.97634	1.2978	1.6428	65.68	-0.2167	-0.0194	0.1973	856.3856	0.085461	-373.674525	-373.667529	-373.666585	-373.705483	26.225
N         -0.04590        1.36000        0.16040
C          0.00510       -0.01230        0.05020
N         -1.07830       -0.78510        0.03290
N         -0.55960       -2.02010       -0.01620
N          0.74970       -2.12200       -0.03810
C          1.16050       -0.84240        0.00260
C          2.51010       -0.43390       -0.01140
C          3.64020       -0.01720       -0.02950
H          0.76320        1.83400       -0.21380
H         -0.91740        1.76690       -0.14690
H         -1.15160       -2.83370       -0.03550
H          4.64400        0.32900       -0.03670
