18
gdb 7048	5.76824	0.83757	0.75692	0.8357	83.51	-0.2449	0.045	0.2899	1503.3938	0.150288	-310.619798	-310.60972	-310.608776	-310.656303	34.779
C          0.01310        1.48640       -0.03070
C          0.01840        0.03010       -0.02170
C          0.02480       -1.17420       -0.00180
C          0.02260       -2.63630       -0.00750
C         -1.39630       -3.20060        0.19040
C          0.67380       -3.16160       -1.32240
C          0.84860       -4.60820       -1.33840
C          0.99310       -5.80180       -1.32700
H          0.64270        1.89230        0.76900
H          0.39120        1.88030       -0.98060
H         -0.99850        1.88250        0.11160
H          0.64880       -2.99050        0.82200
H         -2.05790       -2.86770       -0.61560
H         -1.37150       -4.29350        0.19200
H         -1.81810       -2.85600        1.13790
H          0.05280       -2.84890       -2.17100
H          1.64490       -2.67160       -1.45420
H          1.12500       -6.85530       -1.33140
