17
gdb 13316	5.33623	1.20912	1.04161	5.3288	68.59	-0.2671	0.0345	0.3016	1110.53	0.143647	-363.88757	-363.879753	-363.878809	-363.921573	27.678
N         -0.24610       -1.09470        0.15510
C         -0.14480        0.05300        0.07280
C         -0.02230        1.50390       -0.05510
C          1.42790        1.99520        0.02240
C          1.58490        3.52730       -0.17200
C          2.52160        3.95250        0.98670
C          3.00190        2.60590        1.55220
O          1.92900        1.70620        1.31660
H         -0.45960        1.80730       -1.01270
H         -0.60200        1.98370        0.74120
H          2.02560        1.46080       -0.73280
H          2.00870        3.75230       -1.15360
H          0.61870        4.03630       -0.10970
H          3.34780        4.58540        0.65520
H          1.96420        4.50280        1.74890
H          3.91270        2.26370        1.03480
H          3.19950        2.61710        2.62640
