15
gdb 14928	4.69631	1.50531	1.2129	3.9686	62.17	-0.2615	0.0073	0.2688	948.8248	0.120375	-399.799461	-399.79252	-399.791576	-399.830704	25.774
N         -0.03820       -1.13930       -0.02120
C          0.00690        0.01450       -0.01160
C         -0.00020        1.47990        0.02920
C         -0.72260        1.99740        1.28880
O         -0.66490        3.40690        1.31900
C          0.67990        3.86960        1.30710
C          1.39880        3.35910        0.06540
O          1.34270        1.93570        0.00620
H         -0.54150        1.85200       -0.85670
H         -1.77770        1.71320        1.27310
H         -0.24320        1.55910        2.17750
H          0.63780        4.96220        1.31560
H          1.20770        3.52600        2.21060
H          0.93730        3.79150       -0.83620
H          2.45960        3.62220        0.08120
