16
gdb 5229	7.31149	1.14359	1.00648	1.8374	68.06	-0.1988	0.0328	0.2317	1152.3653	0.131794	-379.955412	-379.947694	-379.946749	-379.988214	27.724
C         -0.05720        1.51300       -0.12280
C         -0.04090        0.01930        0.18130
N         -1.37250       -0.55310        0.01350
C         -1.51840       -1.90840        0.00610
N         -0.60080       -2.81730       -0.14710
C         -1.32250       -4.01110       -0.14410
C         -2.63490       -3.75540        0.02110
O         -2.78250       -2.38150        0.12230
H          0.94500        1.93410       -0.00480
H         -0.39540        1.70030       -1.14590
H         -0.72390        2.05250        0.56030
H          0.62440       -0.51020       -0.50520
H          0.34730       -0.16200        1.19500
H         -2.13190       -0.05640        0.45610
H         -0.83150       -4.96470       -0.25760
H         -3.53600       -4.33740        0.09250
