15
gdb 2444	4.17977	3.49904	2.78071	1.6033	55.75	-0.243	0.0906	0.3336	565.4118	0.127826	-345.625747	-345.6205	-345.619556	-345.654418	21.358
C         -0.03390        1.55480       -0.05030
C          1.51520        1.43140       -0.02540
C          1.32130        0.12050        0.79020
C         -0.00330        0.00130       -0.01750
O          0.24440       -0.46890       -1.34430
C          1.54160       -0.12770       -1.78670
O          1.96230        1.14900       -1.35330
H         -0.43660        1.98750        0.86930
H         -0.47690        2.02040       -0.93180
H          2.13750        2.24100        0.35790
H          2.06830       -0.67290        0.73110
H          1.11450        0.34590        1.83810
H         -0.84660       -0.56930        0.37340
H          2.26080       -0.88940       -1.44590
H          1.52320       -0.11410       -2.87970
