16
gdb 19896	4.08175	1.76633	1.54427	3.1043	68.4	-0.2203	-0.0248	0.1954	849.837	0.129924	-346.526651	-346.519829	-346.518885	-346.558267	26.283
O         -0.46990        0.60930       -1.09740
C         -0.06060        1.08450       -0.06820
C          1.09990        2.04230       -0.00140
C          1.17750        3.53200       -0.29170
C          0.04720        4.41630        0.28970
C         -1.01390        3.66160        1.03270
C          0.33250        3.85940        1.67740
C          1.48610        2.98780        1.09830
H         -0.48210        0.77620        0.91460
H          1.97370        1.55810       -0.43990
H          1.87200        3.90140       -1.03520
H         -0.07930        5.44770       -0.01190
H         -1.79160        4.29250        1.45510
H         -1.39130        2.70290        0.69620
H          0.44230        4.40160        2.60710
H          2.44920        2.93020        1.58980
