14
gdb 5204	6.704	1.17403	1.08	1.483	63.79	-0.2354	-0.0489	0.1865	1041.9944	0.107872	-378.756861	-378.74969	-378.748745	-378.789737	24.912
O          0.05220       -0.12230        0.26300
C          0.07700        0.96620       -0.24150
C          1.25260        1.93310       -0.08740
N          1.31640        2.90700       -1.15130
C          1.68790        2.66880       -2.46070
C          1.53130        3.86430       -3.10990
N          1.07100        4.82940       -2.24470
C          0.95020        4.22310       -1.08790
H         -0.76400        1.36490       -0.85140
H          1.12550        2.46330        0.86390
H          2.17980        1.35690       -0.01710
H          2.02920        1.69860       -2.78310
H          1.72760        4.08620       -4.14780
H          0.61410        4.67230       -0.16410
