15
gdb 4054	5.67004	1.2517	1.0842	0.9572	69.11	-0.2298	-0.0379	0.1919	1043.7428	0.118789	-399.768262	-399.760662	-399.759718	-399.800889	28.25
O         -0.11300        1.34480       -0.02140
N          0.01860       -0.05460        0.01430
C         -1.12090       -0.63350        0.03820
C         -1.25210       -2.14580        0.05370
C         -2.78410       -2.41050       -0.02680
O         -3.29340       -3.24500        1.00660
C         -3.38900       -1.02420       -0.01190
C         -2.46570       -0.05490        0.03690
H          0.80550        1.63260       -0.03960
H         -0.70120       -2.60460       -0.77080
H         -0.85770       -2.57470        0.98020
H         -3.04440       -2.94240       -0.94880
H         -3.17730       -2.77590        1.84100
H         -4.46360       -0.88000       -0.02250
H         -2.64310        1.01090        0.06010
