14
gdb 4643	7.07234	1.25819	1.07531	1.0056	74.09	-0.2158	-0.004	0.2118	1053.9561	0.106399	-345.411154	-345.403697	-345.402753	-345.442788	27.604
C          0.07250        1.48480       -0.01540
C         -0.07110        0.00630        0.01700
C         -1.12400       -0.83710       -0.13030
C         -0.60780       -2.17900        0.00940
C          0.73210       -2.02800        0.23230
O          1.06960       -0.71720        0.23950
C         -1.32870       -3.39260       -0.06700
C         -1.95910       -4.41630       -0.13530
H          0.76050        1.80340       -0.80650
H         -0.89950        1.94660       -0.19990
H          0.46210        1.87060        0.93330
H         -2.15030       -0.56400       -0.31600
H          1.53050       -2.73190        0.39570
H         -2.50890       -5.32240       -0.19430
