15
gdb 16220	3.20321	2.32082	1.53567	3.415	61.17	-0.2639	0.	0.264	814.0591	0.121159	-399.820508	-399.813826	-399.812882	-399.851511	25.023
O          0.08110        0.05850       -0.37440
C          0.06440        1.22980       -0.11120
O         -1.07170        1.93380        0.10160
C         -0.76660        3.30020        0.46170
C          0.68450        3.55550        0.01180
C          1.24550        2.15060        0.00530
C          2.43170        1.64230        0.75420
N          2.47190        1.78980       -0.70120
H         -1.50010        3.93930       -0.03220
H         -0.88490        3.39970        1.54590
H          0.71490        3.97240       -0.99950
H          1.20990        4.24080        0.67930
H          3.03940        2.35280        1.30800
H          2.36840        0.64320        1.17600
H          2.32590        0.87610       -1.13210
