16
gdb 18103	4.40796	2.09685	1.52872	1.6985	71.4	-0.2312	0.0149	0.2461	818.9168	0.132706	-346.604908	-346.598709	-346.597765	-346.635129	24.534
C         -0.03650        1.48760        0.07990
O          1.29380        1.97010       -0.14280
C          2.03160        0.92600       -0.77020
C          3.39810        0.55960       -0.23240
C          3.50260       -0.76630       -0.09600
C          2.20820       -1.50530       -0.43310
C          1.25970       -0.34050       -0.47560
C          0.07090       -0.02220        0.01730
H         -0.37890        1.83740        1.06270
H         -0.72740        1.90140       -0.67470
H          2.10920        1.14850       -1.85180
H          4.19330        1.27870       -0.07680
H          4.40340       -1.29620        0.19490
H          2.29700       -2.02580       -1.39810
H          1.93370       -2.26260        0.30900
H         -0.68640       -0.68720        0.41290
