19
gdb 1174	3.78827	1.79974	1.69061	0.6494	72.99	-0.2571	0.0621	0.3192	877.146	0.168729	-273.761967	-273.753003	-273.752059	-273.794445	33.384
C         -0.09110        1.55050        0.14040
C          0.01260        0.03000       -0.01680
C          0.74050       -0.47930       -1.29700
C          0.00680       -0.01740       -2.57760
C          2.20870        0.00510       -1.33470
C          0.73190       -1.94690       -1.25550
C          0.72150       -3.14890       -1.21570
H          0.89180        2.02830        0.19150
H         -0.64780        2.01340       -0.67990
H         -0.61870        1.79290        1.06830
H          0.53210       -0.39000        0.85220
H         -0.99330       -0.40510       -0.00910
H          0.03800        1.07200       -2.67210
H          0.47880       -0.44750       -3.46530
H         -1.04010       -0.33450       -2.56450
H          2.74310       -0.29570       -0.42880
H          2.73160       -0.42460       -2.19350
H          2.25650        1.09460       -1.41980
H          0.71360       -4.21000       -1.18350
