19
gdb 7990	3.61741	1.61354	1.17275	3.6886	72.89	-0.233	0.0379	0.2709	1050.4607	0.166298	-365.12165	-365.11326	-365.112316	-365.154406	30.659
C         -0.68440        1.34830        0.02580
C          0.17160        0.08500       -0.00330
C          1.19690        0.04950       -1.16100
N          2.26780       -0.78290       -0.64740
C          3.35980       -1.24550       -1.46930
C          2.26870       -0.90740        0.71960
O          3.10480       -1.49540        1.37460
C          1.04740       -0.14810        1.23970
H         -0.06280        2.24110        0.15800
H         -1.24970        1.46830       -0.90500
H         -1.40420        1.31760        0.84970
H         -0.48440       -0.78570       -0.12240
H          0.77430       -0.37500       -2.07960
H          1.56130        1.06090       -1.40680
H          3.90720       -0.40680       -1.92040
H          4.03820       -1.81040       -0.82750
H          2.99880       -1.89280       -2.27760
H          1.39900        0.79930        1.66890
H          0.55730       -0.70500        2.04040
