11
gdb 3803	8.01791	2.12701	1.69913	2.8305	48.91	-0.2435	-0.0413	0.2023	677.4764	0.078157	-376.531779	-376.52571	-376.524765	-376.56215	20.832
C         -0.06040        1.41050        0.01000
O          0.00120       -0.01860        0.00390
C         -1.17160       -0.65680        0.01170
C         -1.40400       -1.99940        0.00930
O         -2.73070       -2.17750        0.01990
N         -3.32200       -0.90450        0.02900
N         -2.39510       -0.03820        0.02410
H          0.97610        1.74780        0.00260
H         -0.58490        1.78430       -0.87460
H         -0.56980        1.77720        0.90640
H         -0.77370       -2.87040        0.00120
