20
gdb 7594	2.64206	1.77123	1.42425	2.7527	70.86	-0.2513	0.0694	0.3207	991.3534	0.174866	-386.127396	-386.118031	-386.117086	-386.160635	35.439
C         -0.23970        1.49030        0.00190
C          0.05910       -0.00410       -0.02060
O          0.84550       -0.25920       -1.18080
C          0.78510       -0.50660        1.23080
C          2.01260        0.27600        1.65360
C         -0.06540       -1.18530        2.29270
C          0.82810       -2.00080        1.38990
O          0.28190       -2.76300        0.34450
H          0.68420        2.07490        0.01230
H         -0.80210        1.76740       -0.89360
H         -0.83160        1.75500        0.88340
H         -0.89240       -0.54790       -0.09660
H          0.91190       -1.21920       -1.24870
H          1.74760        1.25990        2.05420
H          2.57170       -0.25470        2.43070
H          2.67650        0.42360        0.79580
H          0.21150       -1.08200        3.33700
H         -1.13440       -1.24060        2.11120
H          1.72930       -2.43030        1.82760
H         -0.17930       -3.51980        0.71980
