17
gdb 8695	2.72675	1.69317	1.322	4.9797	64.6	-0.2433	0.0354	0.2786	987.1203	0.142431	-397.175057	-397.165942	-397.164998	-397.208373	33.146
N         -0.18920        1.41130        0.16680
C          0.07780       -0.00980       -0.05850
C          0.86130       -0.55000        1.16300
O          0.19180       -0.16760        2.34460
C          0.95450       -2.07960        1.15650
N          1.71480       -2.53230        2.31240
C          2.22230        0.05710        1.13000
N          3.23720        0.60380        1.04530
H          0.62940        1.96920       -0.05610
H         -0.95140        1.73830       -0.41450
H         -0.88000       -0.53800       -0.08900
H          0.62590       -0.23430       -0.98430
H         -0.15330        0.72190        2.15200
H         -0.08320       -2.45130        1.10840
H          1.46860       -2.40190        0.24410
H          1.22450       -2.26690        3.16050
H          1.79530       -3.54290        2.31020
