13
gdb 9455	2.80476	1.7959	1.73947	3.2816	59.1	-0.2662	-0.0601	0.2061	830.5668	0.093526	-398.607824	-398.59997	-398.599026	-398.640428	27.575
O          0.24150        1.44150        0.30450
C          0.01890        0.08200        0.05880
C         -1.48430       -0.30800       -0.11190
C         -1.17170       -1.04920       -1.44940
C          0.19700       -0.37170       -1.43960
O          1.02110       -0.07660       -2.24790
C          0.74510       -0.79330        0.98840
N          1.33450       -1.49450        1.69430
H          1.13560        1.65580        0.00780
H         -1.91410       -0.90390        0.69130
H         -2.06770        0.60170       -0.25920
H         -1.08000       -2.13300       -1.32630
H         -1.80230       -0.84610       -2.31690
