20
gdb 6561	3.83606	1.29954	1.28122	2.8969	71.1	-0.2514	0.0746	0.326	1076.3579	0.17481	-386.126295	-386.117241	-386.116297	-386.159558	34.228
C         -0.30030        1.39440        0.17920
C          0.10610       -0.07490       -0.02870
C          0.82040       -0.61100        1.21410
O         -1.05910       -0.88380       -0.18140
C          1.01700       -0.25410       -1.27130
C          0.45250        0.35180       -2.53790
C          0.22390       -0.43410       -3.75730
O         -0.87580       -0.07030       -2.91690
H          0.57400        2.04610        0.28910
H         -0.89900        1.75990       -0.66050
H         -0.90960        1.48060        1.08310
H          0.13840       -0.58760        2.06880
H          1.13290       -1.64790        1.05940
H          1.70270       -0.01030        1.45570
H         -1.38920       -0.74350       -1.07880
H          1.99970        0.19570       -1.08500
H          1.16880       -1.33000       -1.40870
H          0.59850        1.42480       -2.66050
H          0.23460        0.05230       -4.73100
H          0.47610       -1.49330       -3.76240
