17
gdb 6191	3.71105	1.65412	1.53546	4.8916	64.15	-0.2585	0.0564	0.3149	904.8072	0.14247	-401.067372	-401.059529	-401.058585	-401.099254	29.588
C         -0.08740        1.58720       -0.01010
C          0.05070        0.07130       -0.03970
C         -1.30120       -0.63690        0.06150
C          0.87870       -0.44280       -1.24860
N          1.65380       -1.48820       -0.61470
C          1.76570       -1.27660        0.74450
O          2.50880       -1.81590        1.51620
O          0.85100       -0.32900        1.10370
H          0.89670        2.06300        0.00350
H         -0.63200        1.93640       -0.89340
H         -0.63700        1.90570        0.87980
H         -1.96100       -0.32470       -0.75430
H         -1.17190       -1.72160        0.00780
H         -1.78310       -0.39290        1.01180
H          0.23310       -0.83060       -2.04230
H          1.50850        0.35310       -1.67070
H          2.42590       -1.94250       -1.07430
