16
gdb 13100	4.24459	1.22276	1.02237	4.8507	61.91	-0.2419	-0.018	0.2239	1110.0718	0.128208	-420.855023	-420.846463	-420.845519	-420.889569	29.063
O          0.04660        1.45240       -0.08030
C          0.07040        0.04870       -0.00730
C          0.06500       -0.58710        1.40310
O         -1.23110       -1.17840        1.17630
C         -1.33470       -0.58880       -0.14280
C         -2.52050        0.36540       -0.27090
C         -3.83290       -0.34180       -0.00740
O         -4.77060       -0.34050       -0.76450
H          0.94960        1.78040       -0.03360
H          0.81390       -0.37710       -0.69100
H          0.83200       -1.34500        1.60230
H          0.05120        0.14860        2.21680
H         -1.39500       -1.37240       -0.90900
H         -2.40330        1.16780        0.46700
H         -2.54930        0.81370       -1.26780
H         -3.87740       -0.87760        0.96490
