19
gdb 7379	3.86966	1.04091	0.98428	2.7782	69.09	-0.2419	0.0325	0.2745	1272.1193	0.163215	-402.227512	-402.217285	-402.21634	-402.263978	34.707
C         -0.16530        1.30100        0.08150
O         -0.00200       -0.09320       -0.01820
C          0.64100       -0.65020        1.10770
C          0.81840       -2.15320        0.87070
C          1.70720       -2.42700       -0.35380
C          1.45460       -2.76800        2.11820
N          0.78330       -3.82370        2.66250
O          2.49270       -2.34290        2.59120
H          0.80160        1.82050        0.17160
H         -0.66510        1.63870       -0.82980
H         -0.78380        1.57910        0.94990
H          1.62640       -0.18930        1.27370
H          0.04030       -0.47420        2.01660
H         -0.17580       -2.58400        0.70010
H          1.75680       -3.49740       -0.57630
H          1.30900       -1.90530       -1.22600
H          2.72350       -2.07180       -0.16070
H         -0.05090       -4.20190        2.25090
H          1.19060       -4.29100        3.45630
