18
gdb 12485	3.23707	1.88352	1.33062	2.1733	67.79	-0.2365	-0.0122	0.2243	933.4459	0.155299	-384.962148	-384.954639	-384.953695	-384.994214	28.202
O         -0.05920        0.07840        0.71980
C         -0.05340        1.19160        0.24460
C         -1.35670        1.93400       -0.03520
C         -1.59220        2.09250       -1.55410
C         -0.87500        3.30770       -2.16870
O          0.37050        3.62900       -1.57340
C          1.30190        2.56700       -1.48090
C          1.25500        1.89240       -0.10090
H         -2.15770        1.34440        0.41570
H         -1.33490        2.92140        0.44060
H         -1.29390        1.16750       -2.06100
H         -2.66450        2.20380       -1.74740
H         -0.75470        3.15560       -3.25350
H         -1.48270        4.20740       -2.02850
H          1.15300        1.83310       -2.28610
H          2.29620        3.00460       -1.62250
H          1.41640        2.67870        0.64930
H          2.06290        1.16220        0.00040
