20
gdb 5979	3.12947	1.16961	1.06375	2.9426	71.85	-0.2488	-0.0231	0.2257	1225.8884	0.172871	-386.157404	-386.147094	-386.14615	-386.192924	36.211
C         -0.19840        1.61340        0.04090
C         -0.04890        0.09020        0.11070
C         -1.37980       -0.63480       -0.12250
C         -1.31300       -2.18050       -0.01360
C         -0.49880       -2.82890       -1.13740
O         -0.85670       -2.58740        1.27590
C         -2.75830       -2.67620       -0.06880
O         -3.39940       -2.77950       -1.08130
H          0.75810        2.11420        0.21890
H         -0.56380        1.92960       -0.94200
H         -0.91030        1.97530        0.79050
H          0.69360       -0.23270       -0.62890
H          0.34690       -0.18540        1.09670
H         -2.10700       -0.27410        0.61690
H         -1.78270       -0.38080       -1.11000
H          0.52030       -2.43170       -1.17290
H         -0.44040       -3.90920       -0.97850
H         -0.97980       -2.64730       -2.10140
H          0.08620       -2.40590        1.33150
H         -3.18140       -2.91000        0.93300
