17
gdb 14653	14.46194	0.62624	0.60704	2.3746	76.2	-0.2519	0.0214	0.2733	1788.9508	0.138923	-363.82177	-363.812126	-363.811182	-363.858036	32.373
C         -0.04880        1.38980        0.01550
N          0.07010       -0.05070        0.09440
C          0.51880       -0.65010       -0.91480
O          0.65670       -1.99280       -0.91260
C          1.17530       -2.56810       -2.10880
C          1.24490       -4.08000       -1.88170
C          1.76520       -4.77850       -3.04900
C          2.19730       -5.32700       -4.02680
H          0.54440        1.85180        0.81290
H          0.27660        1.81590       -0.94800
H         -1.09120        1.68250        0.18560
H          0.82770       -0.16150       -1.85280
H          0.52200       -2.34220       -2.96100
H          2.17480       -2.17090       -2.32680
H          1.87420       -4.27550       -1.00570
H          0.24170       -4.44470       -1.63210
H          2.57760       -5.82730       -4.88280
