17
gdb 9239	5.71747	0.78407	0.71175	5.4956	83.54	-0.2807	-0.0345	0.2462	1552.4592	0.140931	-326.728512	-326.719276	-326.718332	-326.762907	32.191
C         -0.10490        1.54030        0.05360
C          0.01540        0.01500        0.00720
C          0.77410       -0.51150       -1.23990
C          2.25610       -0.07990       -1.27850
C          0.66690       -1.96330       -1.31630
C          0.58170       -3.16860       -1.36200
C          0.48570       -4.52900       -1.41650
N          0.40430       -5.68720       -1.46300
H          0.86920        2.02930        0.14420
H         -0.59300        1.92740       -0.84780
H         -0.70660        1.84750        0.91380
H          0.52380       -0.35350        0.90600
H         -0.98500       -0.43020        0.01310
H          0.27590       -0.10230       -2.13120
H          2.78510       -0.44040       -0.39130
H          2.75630       -0.48470       -2.16160
H          2.33500        1.00920       -1.31110
