12
gdb 3400	4.80577	2.59933	2.28442	4.8776	50.58	-0.2453	0.0078	0.2531	600.5321	0.090613	-360.491959	-360.486079	-360.485135	-360.521498	22.168
O         -0.22350        1.41120        0.02550
C         -0.08100        0.02720        0.05310
C         -0.44930       -0.80500        1.24770
N         -1.56560       -0.22720        1.99810
C         -2.38870       -0.17310        0.85110
O         -3.49800        0.23920        0.68850
C         -1.32270       -0.83580       -0.01570
H          0.56250        1.80410        0.42080
H          0.74800       -0.36650       -0.53900
H          0.15320       -1.59670        1.67470
H         -1.45380        0.58340        2.59730
H         -1.46530       -1.60630       -0.76000
