14
gdb 19278	3.41453	1.88948	1.39084	3.0758	57.27	-0.254	-0.0422	0.2117	861.5811	0.106052	-419.635464	-419.628232	-419.627288	-419.667277	26.286
O          0.10030        1.36260        0.15080
C          0.08200       -0.01590       -0.17120
C         -1.33770       -0.56920       -0.06810
C         -1.60120       -2.08580       -0.07870
O         -0.92630       -2.62680        1.05380
C         -2.24980       -2.07780        1.25680
C         -1.98620       -0.57390        1.34940
O         -2.20790        0.28630        2.15070
H         -0.30210        1.46590        1.02150
H          0.45570       -0.09910       -1.19740
H          0.74890       -0.60160        0.47690
H         -2.00730       -0.02450       -0.74530
H         -1.80180       -2.74440       -0.91440
H         -2.99780       -2.72030        1.70480
