16
gdb 2988	4.56297	1.90763	1.46718	2.574	61.76	-0.2482	-0.0238	0.2244	837.1625	0.134829	-325.752244	-325.744499	-325.743555	-325.784676	27.104
C          0.03610        1.35620       -0.14930
C          0.07070       -0.16980        0.01800
C          0.79860       -0.50300        1.31390
O          1.97590       -0.73890        1.38990
N         -1.28900       -0.69240        0.10760
C         -1.96950       -0.95210       -1.15660
C         -1.48590       -2.07890       -0.31310
H          1.05120        1.75660       -0.21190
H         -0.50170        1.62080       -1.06440
H         -0.48020        1.82390        0.69450
H          0.64700       -0.61610       -0.81030
H          0.13960       -0.48350        2.21120
H         -3.02490       -0.69710       -1.18660
H         -1.42650       -0.75450       -2.07950
H         -0.61950       -2.63210       -0.67170
H         -2.18130       -2.65840        0.28640
