18
gdb 14149	4.27259	1.5612	1.36618	1.3725	67.84	-0.242	0.0863	0.3283	960.0355	0.153831	-384.923596	-384.915801	-384.914856	-384.956275	28.733
C          0.01860        1.54100       -0.19890
C         -0.00550        0.04570        0.02720
C          1.27020       -0.78550       -0.03890
C          0.54870       -0.57180        1.26620
C          1.16290        0.17300        2.45710
O          0.91080       -0.68450        3.56790
C          0.52190       -1.92750        3.02800
O         -0.16710       -1.64660        1.83470
H          0.93110        1.99520        0.20190
H         -0.01920        1.77350       -1.26840
H         -0.83520        2.03230        0.28050
H         -0.89070       -0.45940       -0.35080
H          1.20990       -1.77030       -0.48850
H          2.21090       -0.26410       -0.19490
H          2.24070        0.33580        2.32360
H          0.68350        1.13750        2.65570
H          1.40690       -2.55910        2.82690
H         -0.15440       -2.42930        3.72520
