14
gdb 18444	3.09409	2.17919	1.66916	3.8675	61.54	-0.2598	0.0113	0.271	788.3458	0.107604	-378.673227	-378.666158	-378.665214	-378.70447	26.149
O         -0.03890        1.45430       -0.10520
C         -0.00070        0.05780        0.00620
C          0.22970       -0.63340        1.38550
N         -1.07820       -1.38350        1.27110
C         -2.14450       -0.35340        1.24490
C         -2.08240        0.84960        2.03910
N         -2.07440        1.77840        2.72760
C         -1.36870       -0.60040        0.00210
H          0.85700        1.79920       -0.03160
H          0.64090       -0.39330       -0.76220
H          1.05640       -1.34470        1.39990
H          0.28690        0.02720        2.25390
H         -3.12950       -0.81240        1.25940
H         -1.85340       -1.05250       -0.85690
