18
gdb 9261	3.7746	0.99851	0.89534	5.2763	69.18	-0.242	0.0257	0.2677	1305.3683	0.152834	-381.116423	-381.106958	-381.106014	-381.151405	33.017
C         -0.36780        1.81670       -0.00630
C          0.10180        0.35880        0.02100
C         -1.08870       -0.61900        0.09390
O         -1.86270       -0.60110       -1.09890
N          0.96320        0.12160       -1.14410
C          1.78130       -1.08280       -1.05600
C          2.65490       -1.20320       -2.22810
N          3.33160       -1.31510       -3.15730
H          0.49040        2.49120       -0.02570
H         -0.96220        2.01950       -0.90480
H         -0.98200        2.05040        0.86950
H          0.71380        0.20570        0.92070
H         -0.73090       -1.64890        0.19690
H         -1.70300       -0.40130        0.98010
H         -2.39970        0.19700       -1.09810
H          0.36890        0.06180       -1.96720
H          2.41700       -1.01070       -0.16470
H          1.22060       -2.02960       -0.96520
