15
gdb 3136	5.68561	1.97138	1.73841	1.5683	56.71	-0.237	0.0655	0.3025	737.63	0.124966	-345.597078	-345.590396	-345.589451	-345.627749	24.762
O          0.17110        1.38310        0.15120
C          0.07810       -0.01110       -0.11680
C         -1.33230       -0.51140       -0.08430
C         -2.04930       -0.94660        1.18830
C         -1.92880       -1.89660        0.03860
O         -2.93640       -1.64170       -0.93970
C         -2.38240       -0.31700       -1.17740
H         -0.24950        1.53870        1.00370
H          0.50840       -0.14270       -1.11590
H          0.69440       -0.59820        0.58340
H         -1.39110       -1.14670        2.02960
H         -3.02620       -0.54690        1.44700
H         -1.49070       -2.88760        0.07680
H         -3.12560        0.47720       -1.04450
H         -1.95030       -0.25710       -2.18320
