18
gdb 15591	2.51261	2.11182	1.50092	1.5092	71.97	-0.253	0.0412	0.2942	914.5252	0.154118	-347.784916	-347.77675	-347.775806	-347.818116	30.671
O          0.40230        0.94450       -0.78420
C          0.04470       -0.16840       -0.00390
C          0.41230       -0.07120        1.49260
C         -0.54870       -1.03960        2.23130
C         -1.55960       -1.53850        1.16240
C         -1.47840       -0.50780        0.01330
C         -2.25840        0.69840        0.26850
C         -2.85090        1.72510        0.47910
H         -0.16690        1.67630       -0.51220
H          0.56030       -1.02140       -0.45980
H          1.46830       -0.29570        1.66000
H          0.24930        0.96110        1.82000
H         -0.02000       -1.88020        2.68810
H         -1.06900       -0.52020        3.03990
H         -1.24900       -2.51220        0.76870
H         -2.57300       -1.65350        1.55180
H         -1.79060       -0.93710       -0.94430
H         -3.40680        2.61140        0.66240
