17
gdb 11222	4.64254	1.29624	1.08737	4.631	75.31	-0.2531	0.0068	0.2598	1092.0741	0.143068	-326.766583	-326.758749	-326.757805	-326.798921	28.775
C         -0.04580        1.55840        0.07980
C          0.00670        0.06440        0.04030
C         -0.28490       -0.72280       -0.99550
C         -0.05010       -2.19200       -0.68580
C          0.09780       -2.19790        0.86800
C          0.47520       -0.74450        1.23260
C         -1.11280       -3.07680       -1.16690
N         -1.95370       -3.77320       -1.54680
H          0.94120        1.98070        0.30710
H         -0.38590        1.97820       -0.87020
H         -0.72190        1.90560        0.87100
H         -0.60990       -0.39030       -1.97410
H          0.88140       -2.53120       -1.16250
H         -0.86680       -2.45450        1.31270
H          0.82500       -2.93800        1.20740
H          1.55930       -0.62380        1.36920
H          0.01140       -0.41820        2.17050
