13
gdb 5653	5.21099	2.19103	1.55728	1.5811	65.75	-0.2088	-0.0251	0.1837	752.0293	0.098338	-361.491674	-361.486168	-361.485223	-361.521115	21.761
C         -0.06490        1.50210        0.01070
C          1.41930        1.86520       -0.00180
C          2.20840        0.76530       -0.01500
C          1.30820       -0.36930       -0.01210
C          0.00620        0.00740        0.00240
N         -0.80310       -1.11140        0.00450
C          0.05070       -2.09100       -0.00880
O          1.37540       -1.72360       -0.01970
H         -0.56720        1.91030        0.89690
H         -0.58420        1.91930       -0.86130
H          1.76770        2.88930        0.00010
H          3.28850        0.73920       -0.02560
H         -0.14540       -3.15110       -0.01240
