20
gdb 12917	3.27663	1.54097	1.28858	1.9086	74.95	-0.2414	0.075	0.3164	1036.8873	0.177028	-348.97381	-348.965376	-348.964432	-349.006503	32.012
C         -0.04990        1.54670        0.05970
C         -0.00560        0.04520        0.01540
C         -1.26130       -0.84610        0.06330
C         -0.50360       -1.85610        0.98130
C          0.73710       -0.95580        0.91960
C          1.18410       -0.71690       -0.50810
C          1.18140       -1.77170       -1.59070
O          2.29910       -2.64590       -1.48280
H          0.94340        1.96930        0.24370
H         -0.41360        1.96260       -0.88830
H         -0.71840        1.90210        0.85270
H         -2.08350       -0.35630        0.59170
H         -1.64490       -1.21740       -0.89210
H         -0.93700       -1.90730        1.98230
H         -0.39000       -2.87990        0.60860
H          1.39810       -0.74940        1.75440
H          2.07720       -0.09500       -0.54870
H          0.23880       -2.33740       -1.59250
H          1.27140       -1.30050       -2.57570
H          2.31180       -2.97400       -0.57740
