20
gdb 15006	4.27825	1.35584	1.10617	1.649	71.66	-0.2481	0.0856	0.3338	1106.0687	0.178217	-386.140266	-386.132201	-386.131257	-386.172785	30.281
C         -0.15340        1.36920        0.01910
O          0.14570       -0.00450       -0.06450
C          0.73630       -0.55650        1.09950
C         -0.25510       -0.73250        2.26010
C          0.40380       -1.51640        3.40070
O          0.89670       -2.76990        2.96600
C          1.87500       -2.63050        1.95060
C          1.31830       -1.91620        0.71540
H          0.73550        1.96360        0.28490
H         -0.50150        1.68260       -0.96840
H         -0.94440        1.58960        0.75070
H          1.55780        0.10290        1.43600
H         -0.60350        0.23480        2.63870
H         -1.12870       -1.28360        1.89320
H          1.22340       -0.91990        3.84010
H         -0.31570       -1.72780        4.19670
H          2.74830       -2.07940        2.34290
H          2.20600       -3.64240        1.70090
H          0.52230       -2.52280        0.26910
H          2.10220       -1.79030       -0.03890
