13
gdb 20585	3.59824	1.89514	1.25101	2.6415	68.94	-0.2393	-0.0241	0.2152	903.9658	0.094509	-361.437311	-361.429979	-361.429035	-361.469068	26.507
C          0.06560        1.49860        0.06840
C         -0.04330        0.01830        0.06960
C         -1.11730       -0.83330       -0.01150
C         -0.50780       -2.12600        0.04650
N          0.79090       -2.05990        0.15100
O          1.08770       -0.69300        0.16580
C         -2.48510       -0.50640       -0.12420
C         -3.65430       -0.23460       -0.22050
H          0.67750        1.84450       -0.77100
H         -0.92950        1.93880       -0.01450
H          0.53600        1.85640        0.99010
H         -0.99340       -3.09070        0.01370
H         -4.68530        0.00450       -0.30550
