12
gdb 23784	4.04112	1.84592	1.2679	6.2667	59.98	-0.2357	-0.0393	0.1964	854.228	0.084892	-418.829038	-418.822704	-418.82176	-418.859363	24.332
N         -0.01270        1.39950       -0.13100
C         -0.03380        0.03130       -0.04860
C         -1.20680       -0.71310       -0.02600
C         -1.05170       -2.09300        0.00730
F         -2.14740       -2.84240        0.02960
N          0.08580       -2.75440        0.02310
N          1.21490       -2.03760        0.00440
C          1.16610       -0.71960       -0.03060
H          0.84250        1.86860        0.12020
H         -0.85080        1.90040        0.11700
H         -2.19360       -0.26560       -0.03510
H          2.12880       -0.21410       -0.04610
