16
gdb 20939	7.41463	1.1341	1.00022	4.3172	67.21	-0.2134	0.0374	0.2509	1150.4869	0.133114	-376.128247	-376.120492	-376.119548	-376.16092	27.649
C          0.01360        1.51110        0.01700
C         -0.11230       -0.00090       -0.13460
N          0.86890       -0.50140       -1.08730
C          0.91220       -1.82820       -1.42400
N          1.46900       -2.32590       -2.51810
C          1.29680       -3.66880       -2.35210
N          0.67590       -4.04360       -1.25310
N          0.42580       -2.83200       -0.65720
H          1.01940        1.78600        0.34690
H         -0.18620        2.01740       -0.93380
H         -0.70720        1.88250        0.74970
H          0.07360       -0.47700        0.83740
H         -1.14030       -0.26640       -0.43070
H          1.05100        0.09330       -1.88310
H          1.64290       -4.39190       -3.07610
H         -0.03990       -2.79950        0.23240
