20
gdb 10979	2.77897	2.39621	1.7148	0.2795	79.1	-0.2201	0.02	0.2401	869.4792	0.17756	-311.843824	-311.836293	-311.835349	-311.874836	30.669
C         -0.18310        1.54150       -0.03010
C          0.01520        0.03100       -0.00020
C          1.19320       -0.59580       -0.84300
C          2.13240       -0.20940        0.34710
C          0.86240       -0.60540        1.18460
C          0.67490       -0.22030        2.63420
C          0.75400       -2.08770        0.78380
C          0.97040       -2.08080       -0.53450
H          0.74150        2.10800        0.10950
H         -0.61520        1.84780       -0.98950
H         -0.88300        1.85230        0.75410
H         -0.94750       -0.46540       -0.15940
H          1.39640       -0.29510       -1.87100
H          3.02830       -0.81840        0.48990
H          2.38510        0.85320        0.39670
H          0.74800        0.86310        2.77530
H         -0.30620       -0.53880        3.00560
H          1.43640       -0.68880        3.26820
H          0.53550       -2.90820        1.45390
H          0.97840       -2.89530       -1.24510
