15
gdb 17303	3.2027	2.51699	1.91266	3.7994	59.98	-0.2356	0.0511	0.2867	730.4868	0.119094	-399.703373	-399.696974	-399.69603	-399.733476	25.712
O         -0.09250        1.42000       -0.06660
C          0.03490        0.03770        0.00660
C         -1.29430       -0.74050        0.05190
O         -0.86730       -1.47740        1.22950
C          0.38860       -0.78730        1.27360
C          1.57380       -1.43090        0.49620
N          1.01470       -2.08520       -0.70760
C          1.24090       -0.62600       -0.72140
H          0.78090        1.81660        0.02690
H         -2.14900       -0.09180        0.27470
H         -1.51020       -1.40220       -0.78980
H          0.63170       -0.35250        2.24690
H          2.53330       -1.73920        0.89430
H          1.79320       -2.52150       -1.20090
H          1.87810       -0.15970       -1.46520
