16
gdb 12082	3.83256	1.65499	1.5166	1.5137	59.92	-0.2523	0.0551	0.3073	873.3742	0.12908	-420.823432	-420.815761	-420.814817	-420.855169	29.158
O         -0.06200        1.40950       -0.05360
C          0.02530       -0.01160        0.05430
C         -1.40630       -0.51790       -0.00970
O         -2.18210        0.07850        1.00250
C         -2.11540       -0.50820       -1.42590
C         -2.25570       -2.02960       -1.30220
O         -0.93200       -2.56500       -1.14320
C         -1.59830       -2.04600        0.01230
H          0.80030        1.78720        0.13930
H          0.61760       -0.44830       -0.75810
H          0.46880       -0.30670        1.01700
H         -1.92170        1.00930        1.01180
H         -3.06890        0.01780       -1.35190
H         -1.54460       -0.15110       -2.28600
H         -3.00540       -2.69220       -1.71790
H         -1.71630       -2.69040        0.87600
