19
gdb 1688	4.11772	1.70212	1.28946	2.4166	63.48	-0.2553	0.0631	0.3184	957.8159	0.169985	-348.056093	-348.047277	-348.046333	-348.088867	32.331
C         -0.10520        1.53420       -0.00690
C         -0.01070        0.00230        0.03310
C          0.85570       -0.45990        1.21440
C         -1.41100       -0.63110        0.05950
O         -2.20660       -0.20510       -1.05860
C         -1.42260       -2.16450        0.08900
O         -2.74080       -2.65600       -0.01210
H          0.88430        1.98260       -0.14060
H         -0.75300        1.87030       -0.81960
H         -0.52180        1.91960        0.93120
H          0.47670       -0.33670       -0.89590
H          0.36970       -0.22840        2.16950
H          1.05650       -1.53440        1.19070
H          1.82080        0.05620        1.20330
H         -1.96330       -0.26480        0.93440
H         -1.69910       -0.38630       -1.85940
H         -0.78500       -2.54320       -0.73330
H         -1.00430       -2.54270        1.02650
H         -3.18100       -2.06470       -0.63760
