14
gdb 19192	3.79652	1.99502	1.79295	1.572	56.67	-0.2349	-0.0378	0.197	754.8435	0.107951	-419.649944	-419.6436	-419.642656	-419.680267	24.75
O          0.08520        1.43870        0.09350
C          0.02310        0.04960        0.04760
C         -1.38460       -0.66140       -0.15490
C         -1.83300        0.04080       -1.44350
O         -0.57230        0.07910       -2.19090
C          0.33510       -0.62890       -1.32200
C         -0.53580       -1.78400       -0.78360
O         -0.49210       -2.97490       -0.74240
H         -0.01800        1.75040       -0.81600
H          0.57740       -0.36620        0.89090
H         -2.10870       -0.81940        0.63930
H         -2.58370       -0.51720       -2.01140
H         -2.18660        1.06280       -1.27510
H          1.31810       -0.71630       -1.77610
