15
gdb 1954	6.78626	1.55044	1.52269	1.4885	62.85	-0.2555	0.0467	0.3022	831.0734	0.124204	-308.469081	-308.461956	-308.461012	-308.500053	26.835
O          0.62770        0.56570       -0.71940
C         -0.09370       -0.29600        0.11840
C          0.06380       -0.20200        1.65830
C         -1.46130       -0.54580        1.78910
C         -1.62520       -0.12040        0.28800
C         -1.73590       -1.94730        2.04390
C         -1.95600       -3.11250        2.24640
H          0.44840        1.47130       -0.44460
H          0.13810       -1.30700       -0.22740
H          0.77810       -0.86290        2.15110
H          0.24910        0.83100        1.97240
H         -2.01050        0.07340        2.50290
H         -1.90990        0.93520        0.22090
H         -2.29110       -0.71460       -0.33910
H         -2.15590       -4.13860        2.43140
