17
gdb 19950	3.74897	1.70682	1.2755	3.4207	70.23	-0.2372	0.0356	0.2728	965.272	0.14294	-363.869335	-363.861756	-363.860812	-363.902076	27.683
O         -0.09370        0.02520        0.76070
C         -0.07890        1.16380        0.37260
C         -1.13340        2.23000       -0.00600
C          0.07820        3.14920       -0.32240
N          0.95020        2.03410        0.06970
C          2.36640        1.93620        0.12580
C          3.00110        0.60310       -0.16230
C          3.14780        1.72610       -1.15550
H         -1.75840        1.96120       -0.85940
H         -1.76540        2.54840        0.82470
H          0.18500        3.44670       -1.37100
H          0.17650        4.03360        0.31670
H          2.83220        2.55780        0.88850
H          3.86050        0.32410        0.43610
H          2.33270       -0.21380       -0.40080
H          2.57830        1.66240       -2.07570
H          4.10850        2.22010       -1.24810
