24
gdb 10762	3.26976	1.3333	1.23981	0.0982	84.67	-0.2697	0.08	0.3497	1162.4258	0.221935	-314.267175	-314.25726	-314.256316	-314.301557	37.682
C         -0.21900        1.47520        0.12890
C         -0.03240       -0.02570       -0.12090
C          0.81200       -0.43430       -1.35840
C          0.19260        0.14470       -2.64240
C          2.26110        0.07540       -1.22260
C          0.86140       -1.96790       -1.36880
C         -0.18540       -2.85200       -1.99770
C          1.20970       -2.80160       -2.57540
H          0.73650        1.99170        0.26330
H         -0.75090        1.96580       -0.69200
H         -0.80670        1.63670        1.03840
H          0.43090       -0.47490        0.76770
H         -1.01890       -0.49710       -0.21540
H          0.25470        1.23660       -2.64250
H          0.71820       -0.20300       -3.53700
H         -0.86400       -0.12300       -2.74340
H          2.72530       -0.29820       -0.30290
H          2.86960       -0.26900       -2.06510
H          2.31000        1.16850       -1.20200
H          1.26520       -2.35690       -0.43560
H         -0.49570       -3.74340       -1.46300
H         -0.97850       -2.39020       -2.57530
H          1.33470       -2.30920       -3.53360
H          1.86200       -3.65710       -2.43600
