13
gdb 3374	4.70836	2.79817	2.62896	2.0945	48.74	-0.2358	0.0721	0.3079	572.5891	0.102463	-381.546975	-381.541197	-381.540253	-381.576442	21.706
O          0.07830        1.39080        0.03870
C          0.02350        0.01000        0.03690
C         -0.43730       -0.78180        1.25600
O         -1.08220       -0.03350        2.26370
C         -2.41700        0.11100        1.82850
O         -2.37360        0.17960        0.40750
C         -1.31840       -0.69040        0.03360
H         -0.83250        1.69910        0.13950
H          0.82150       -0.43790       -0.54920
H          0.06240       -1.68490        1.59010
H         -3.02860       -0.75030        2.14440
H         -2.82860        1.04560        2.21820
H         -1.59540       -1.50640       -0.62510
