16
gdb 2262	3.71259	2.78216	2.14824	1.752	60.53	-0.23	0.0648	0.2949	682.7732	0.136497	-325.730097	-325.723075	-325.72213	-325.76065	26.439
C          0.02840        1.52570        0.04190
C         -0.03400        0.03030       -0.04680
C         -0.87880       -0.81620        0.82050
N          0.58470       -0.90530        0.99490
C          1.04070       -1.79690       -0.12840
C          0.51300       -0.80100       -1.19980
O         -0.47070       -1.21620       -2.12290
H          1.01830        1.90150       -0.23910
H         -0.70920        1.98130       -0.62890
H         -0.18480        1.86310        1.06020
H         -1.37490       -0.32300        1.65110
H         -1.41650       -1.66450        0.40420
H          2.12720       -1.90830       -0.11290
H          0.56830       -2.78500       -0.12780
H          1.33830       -0.28430       -1.70770
H         -0.03570       -1.69470       -2.83590
