17
gdb 10031	3.61797	1.06806	0.88332	1.9143	75.15	-0.2227	-0.0281	0.1946	1334.4174	0.139068	-363.83065	-363.820732	-363.819787	-363.866874	32.883
C          0.07380        1.55810        0.03430
N         -0.16940        0.12260       -0.10600
C          0.61330       -0.49990       -1.16000
C          2.11880       -0.64880       -0.83810
O          2.58600       -0.42310        0.24600
C          0.14260       -1.84680       -1.49500
C         -0.17350       -2.98280       -1.74010
C         -0.59130       -4.34320       -2.04440
H          1.12390        1.82990        0.21720
H         -0.26270        2.07100       -0.87420
H         -0.52680        1.93630        0.86600
H          0.05070       -0.34470        0.76820
H          0.54280        0.13290       -2.05870
H          2.74010       -1.01780       -1.68410
H         -0.49380       -4.55770       -3.11420
H          0.01220       -5.07770       -1.50030
H         -1.63920       -4.50240       -1.76800
