15
gdb 16309	3.75104	1.68842	1.41862	3.1741	62.78	-0.2492	-0.0451	0.2041	884.0651	0.11776	-399.751485	-399.74396	-399.743016	-399.783378	27.421
O          0.29220        1.43690        0.27670
C          0.05240        0.06360        0.08010
C          0.12510       -0.76950        1.37490
N         -1.25800       -1.33810        1.17240
C         -2.15940       -0.19650        1.18840
C         -1.39450       -0.41360       -0.06920
C         -2.04450       -0.89090       -1.30960
O         -3.13650       -1.40210       -1.35570
H          0.19240        1.89350       -0.56550
H          0.69100       -0.34930       -0.71290
H          0.87000       -1.56560        1.36350
H          0.22310       -0.17770        2.28940
H         -3.20570       -0.48000        1.14120
H         -1.91820        0.67250        1.79690
H         -1.43830       -0.73970       -2.23320
