12
gdb 3953	7.53429	1.87689	1.54279	2.3071	51.11	-0.2596	-0.0155	0.2442	735.7169	0.091082	-360.495137	-360.489	-360.488056	-360.525683	21.588
O          0.29270        1.09360        0.68670
C          0.02220        0.06100       -0.24640
C         -1.37490       -0.47420       -0.12640
C         -2.20310       -0.42180        0.95180
O         -3.37850       -1.00790        0.67910
N         -3.35420       -1.48210       -0.62660
C         -2.17190       -1.15940       -1.08890
H         -0.30330        1.82490        0.49190
H          0.20870        0.38570       -1.28190
H          0.75550       -0.72440       -0.02930
H         -2.09330       -0.00910        1.94180
H         -1.91820       -1.42570       -2.10600
