17
gdb 12940	2.50609	2.19514	1.71392	3.6084	68.84	-0.2393	0.0113	0.2506	868.7331	0.141729	-363.865882	-363.857917	-363.856973	-363.897854	29.678
C          0.07560        1.57600        0.06330
C          0.10330        0.06380        0.08320
C          1.31260       -0.78510       -0.19230
N          2.54280       -0.20750        0.35710
C          1.99370       -0.12600        1.65140
O          2.42710        0.32160        2.67580
C          0.69970       -0.80390        1.20520
C         -0.05620       -1.85500        1.96300
H          1.01400        2.00950        0.41900
H         -0.10410        1.94550       -0.95220
H         -0.72580        1.95700        0.70420
H         -0.81330       -0.39140       -0.29390
H          1.36330       -1.59060       -0.91420
H          3.05320        0.55660       -0.07220
H         -0.53710       -1.42320        2.84720
H         -0.83870       -2.30460        1.34390
H          0.60840       -2.65520        2.30470
