12
gdb 21769	4.0546	2.04327	1.38606	1.4224	67.4	-0.2457	-0.1177	0.128	810.0106	0.084699	-377.495885	-377.489592	-377.488648	-377.52665	22.939
O         -0.00150       -0.08430       -0.35180
C         -0.01500        1.11650       -0.13600
C         -1.27430        1.84100        0.08890
C         -1.49450        3.17640        0.09550
N         -0.69320        4.25660       -0.25940
N          0.57380        4.27390       -0.27620
C          1.41330        3.21610        0.05700
C          1.22960        1.87520        0.05580
H         -2.13140        1.18970        0.24400
H         -2.51080        3.51530        0.28000
H          2.42460        3.58260        0.21460
H          2.10780        1.24750        0.18780
