19
gdb 6033	3.00652	1.54712	1.3298	14.2106	72.13	-0.1701	-0.0281	0.142	1008.8246	0.16372	-402.168382	-402.158804	-402.157859	-402.202386	34.791
C         -0.23740        1.55530       -0.18260
C         -0.00450        0.05210        0.00720
C          0.89660       -0.20810        1.21980
C         -1.30020       -0.72630        0.07610
N         -2.12250       -0.26270        1.32450
H         -1.55970       -0.41050        2.16520
H         -2.30050        0.74130        1.24950
H         -3.01190       -0.75410        1.42590
C          0.73850       -0.51920       -1.31190
O          0.08370       -1.40530       -1.89670
O          1.83160        0.00820       -1.53250
H          0.72060        2.00520       -0.45470
H         -0.93740        1.75630       -1.00240
H         -0.60140        2.07450        0.72220
H          0.55390        0.27820        2.15070
H          1.01570       -1.28100        1.41290
H          1.88620        0.19250        0.98660
H         -1.94450       -0.55390       -0.78330
H         -1.14590       -1.79570        0.20380
