18
gdb 15047	3.15651	1.51469	1.15625	3.1815	71.58	-0.256	0.0247	0.2806	1075.9037	0.154024	-343.976526	-343.96788	-343.966935	-344.010034	30.881
C          0.12840        1.49070       -0.11520
C         -0.02190       -0.02980       -0.05150
C         -1.49040       -0.50990        0.06610
C         -2.27290       -0.07410       -1.09500
N         -2.87520        0.24500       -2.02910
C         -1.57170       -2.02630        0.24890
C         -2.76630       -2.81690       -0.12790
N         -1.50740       -2.95090       -0.88740
H          1.18370        1.77050       -0.17810
H         -0.38170        1.90560       -0.98980
H         -0.29130        1.96930        0.77650
H          0.42890       -0.49570       -0.93450
H          0.51430       -0.42490        0.81860
H         -1.93610       -0.03620        0.95230
H         -0.98730       -2.35570        1.10630
H         -3.04380       -3.68730        0.45930
H         -3.59600       -2.29610       -0.59750
H         -1.58980       -2.43720       -1.76340
