16
gdb 14848	2.35596	2.28981	1.28199	4.7594	65.71	-0.2483	0.0128	0.261	945.8261	0.130501	-379.890597	-379.882455	-379.881511	-379.923586	28.61
C         -0.46040        1.17750       -0.15270
O          0.42350        0.10700        0.14130
C          0.94840       -0.52410       -0.97890
C          2.01290       -1.57460       -0.59650
N          1.05070       -2.66360       -0.88330
C          0.12400       -1.74120       -1.56900
C         -1.27840       -1.87260       -1.17600
N         -2.39420       -1.95950       -0.88670
H          0.03930        1.94370       -0.76430
H         -1.36190        0.83390       -0.67400
H         -0.75150        1.61620        0.80340
H          1.24220        0.20480       -1.74530
H          2.89700       -1.54540       -1.24550
H          2.32820       -1.52960        0.44970
H          1.39060       -3.43010       -1.45120
H          0.17640       -1.75770       -2.66640
