17
gdb 10714	2.61569	2.12928	1.42103	2.8396	64.91	-0.238	0.0284	0.2663	915.7846	0.141196	-401.012143	-401.003659	-401.002714	-401.044836	31.498
C         -0.66470        0.48050        0.18630
O          0.63780        0.02530       -0.16070
C          0.65960       -0.91650       -1.19670
C          1.56130       -2.11140       -0.98860
C          0.06960       -2.28980       -0.97270
C          0.62200       -0.36720       -2.60400
N          0.75590        0.98910       -2.67540
O          0.49150       -1.08600       -3.57830
H         -1.16030        0.97570       -0.65860
H         -1.29940       -0.34510        0.53140
H         -0.53820        1.19790        1.00030
H          2.11110       -2.46710       -1.85150
H          2.08500       -2.13990       -0.04020
H         -0.40420       -2.46560       -0.01390
H         -0.39790       -2.75570       -1.83130
H          1.07380        1.48870       -1.86120
H          0.89990        1.39190       -3.58710
