18
gdb 11529	5.56738	1.04377	0.94136	3.8147	70.57	-0.2466	0.0267	0.2733	1224.2692	0.154159	-381.112533	-381.103973	-381.103029	-381.146185	30.273
C         -0.26750        1.34270        0.16970
N         -0.03640       -0.07880       -0.03020
C         -0.07450       -0.96450        1.11840
C         -1.43680       -1.05380        1.77650
C         -1.54030       -1.44360        3.20330
N         -1.85960       -0.06850        2.78560
C          0.25380       -0.54830       -1.27920
O          0.32490        0.12090       -2.28760
H          0.46020        1.75470        0.88110
H         -0.14720        1.83510       -0.79520
H         -1.27510        1.53000        0.55410
H          0.23280       -1.96030        0.77820
H          0.66430       -0.63810        1.86790
H         -2.23770       -1.34610        1.10010
H         -2.38680       -2.02980        3.54810
H         -0.61630       -1.62070        3.74920
H         -1.08260        0.54700        3.01760
H          0.42230       -1.64360       -1.27300
