13
gdb 5043	3.73173	2.24083	1.52544	2.3072	71.06	-0.2438	-0.0947	0.1491	787.5476	0.097735	-357.644244	-357.638002	-357.637058	-357.674729	23.494
N         -0.00190        1.16600        0.57620
C         -0.02580        0.02350        0.01370
C         -1.30450       -0.66340       -0.22520
C         -1.51510       -1.98520       -0.06300
N         -0.63630       -2.94960        0.39700
C          0.64250       -2.85760        0.30620
C          1.42480       -1.80820       -0.35620
N          1.13220       -0.57510       -0.52850
H          0.95930        1.51710        0.59970
H         -2.14370       -0.02550       -0.48560
H         -2.51920       -2.37230       -0.21690
H          1.21950       -3.70450        0.68490
H          2.38100       -2.14460       -0.76890
