17
gdb 13341	5.40359	1.17476	1.08386	3.7352	72.22	-0.2405	0.0115	0.2519	1105.4831	0.143786	-363.902526	-363.894877	-363.893932	-363.935518	27.801
O         -0.12000        0.12800       -0.79680
C         -0.05730        1.17830       -0.19310
N          1.07010        1.71140        0.34900
C          2.38090        1.07990        0.27310
C          3.41950        1.89280       -0.55160
C          4.76430        1.74180        0.20160
C          4.33740        1.29390        1.57990
C          3.05710        0.93250        1.61910
H         -0.93990        1.82580       -0.01710
H          0.99630        2.59640        0.82750
H          2.18700        0.10130       -0.17860
H          3.46680        1.56710       -1.59290
H          3.11300        2.94430       -0.55570
H          5.40500        0.98150       -0.26550
H          5.35060        2.66750        0.21460
H          5.02780        1.23670        2.41440
H          2.52980        0.53560        2.47930
