19
gdb 10172	3.74934	1.06504	0.8622	1.7292	70.45	-0.2437	0.0196	0.2632	1343.6744	0.162426	-402.182761	-402.17247	-402.171526	-402.218714	34.608
C          0.37470        1.10190        0.30070
O         -0.30100       -0.03360        0.83580
C         -1.44770       -0.48290        0.22190
C         -1.39330       -1.98000        0.07360
C         -2.68680       -2.60530       -0.42570
O         -2.46840       -4.00930       -0.49240
N         -2.45540        0.18340       -0.14870
C         -2.59730        1.60260        0.12310
H          1.43200        0.97420        0.54570
H          0.26410        1.14960       -0.78790
H          0.02100        2.04130        0.73580
H         -0.56940       -2.24320       -0.60180
H         -1.12170       -2.41150        1.04470
H         -3.50830       -2.35310        0.25960
H         -2.94710       -2.18600       -1.40700
H         -3.27510       -4.41830       -0.81780
H         -2.16580        1.90560        1.08550
H         -2.14170        2.21560       -0.66450
H         -3.66400        1.84540        0.13850
