14
gdb 21290	3.37228	1.99047	1.26163	0.8943	59.92	-0.1986	0.0331	0.2317	906.5709	0.107741	-415.860179	-415.852341	-415.851397	-415.892407	27.831
C         -0.03200        1.34350       -0.02530
O         -0.02700       -0.08020       -0.06350
C         -1.24010       -0.66950       -0.02330
N         -2.39620       -0.02840        0.04590
N         -3.31390       -1.02270        0.06200
C         -2.76200       -2.26770        0.00420
C         -1.40100       -2.07540       -0.05220
O         -0.42530       -3.02120       -0.12050
H          1.01360        1.65170       -0.06570
H         -0.58100        1.75480       -0.87900
H         -0.49840        1.70740        0.89630
H         -4.28670       -0.78290        0.11200
H         -3.35450       -3.16730        0.00790
H          0.41900       -2.55750       -0.14890
