18
gdb 1540	5.13399	1.28518	1.08638	4.1508	68.55	-0.3125	0.0391	0.3516	1097.6249	0.159202	-289.871661	-289.863021	-289.862077	-289.904897	30.226
C          0.04730        1.59980        0.04340
C         -0.01330        0.07010       -0.00490
C          0.64630       -0.49740       -1.26670
C          0.68710       -2.04460       -1.31210
C         -0.70540       -2.70050       -1.39920
C          1.51840       -2.48500       -2.43860
N          2.16700       -2.82290       -3.33380
H          1.08310        1.95580        0.02920
H         -0.46650        2.04310       -0.81640
H         -0.42680        1.98640        0.95050
H          0.48380       -0.34560        0.88170
H         -1.05980       -0.25100        0.05100
H          0.12480       -0.13200       -2.16020
H          1.67370       -0.12180       -1.33540
H          1.18280       -2.40040       -0.39870
H         -0.61990       -3.78800       -1.46220
H         -1.29790       -2.45590       -0.51480
H         -1.24240       -2.34910       -2.28520
