10
gdb 332	5.71265	2.8187	2.00322	1.3299	49.83	-0.2708	0.0039	0.2747	588.5174	0.070081	-267.944278	-267.937674	-267.93673	-267.97414	23.408
O         -0.05590        1.44520        0.01040
C          0.04390        0.02490        0.00180
C          0.69370       -0.47710       -1.21830
C          1.23010       -0.85800       -2.22320
C          0.71680       -0.49010        1.20380
C          1.27220       -0.88170        2.19410
H          0.84280        1.79540        0.00370
H         -0.99790       -0.32000        0.00990
H          1.69970       -1.20060       -3.11220
H          1.75870       -1.23380        3.07020
