20
gdb 14052	4.21944	1.53281	1.43282	2.0159	73.45	-0.2412	0.0653	0.3065	963.2838	0.179191	-348.998917	-348.991346	-348.990402	-349.031693	28.451
C         -0.11250        1.43600       -0.12930
O          1.15030        1.68960        0.51490
C          1.47330        0.28460        0.52870
C          0.08510       -0.10050       -0.02570
C         -0.88630       -0.81250        0.92360
C         -2.07420       -1.15540        0.01290
C         -1.41380       -1.59160       -1.31840
C         -0.00640       -0.92450       -1.32410
H         -0.95490        1.85890        0.43400
H         -0.13490        1.83300       -1.15400
H          2.31850        0.05240       -0.13450
H          1.70600       -0.07510        1.53950
H         -0.41940       -1.73310        1.29970
H         -1.15600       -0.20450        1.79270
H         -2.73410       -1.91960        0.43240
H         -2.68480       -0.25790       -0.14450
H         -1.31750       -2.68080       -1.35920
H         -2.01420       -1.29950       -2.18400
H          0.16300       -0.30300       -2.20840
H          0.77840       -1.68930       -1.32690
