14
gdb 3768	3.94842	3.32825	1.84784	4.8814	59.28	-0.2455	0.0071	0.2526	674.6334	0.114432	-320.766344	-320.759525	-320.758581	-320.797188	23.725
C          0.02350        1.44260        0.01080
N          0.00560       -0.00310        0.06620
N         -0.03530       -0.72050       -1.08150
N         -0.04300       -1.97920       -0.75480
C         -0.00750       -2.08220        0.60070
C          0.02430       -0.82040        1.15190
C          0.06950       -0.33300        2.56000
H          0.93320        1.84040        0.47080
H         -0.00300        1.72390       -1.04180
H         -0.84720        1.86430        0.52200
H         -0.00670       -3.03850        1.09960
H          0.96860        0.26180        2.75870
H         -0.79730        0.29170        2.80490
H          0.07310       -1.18190        3.24680
