16
gdb 14548	4.81382	1.50842	1.37903	2.9004	66.27	-0.2463	-0.0239	0.2224	911.9872	0.129335	-383.704333	-383.696868	-383.695923	-383.735956	27.716
C         -0.04280        1.55290       -0.09330
C         -0.00450        0.04340       -0.11870
C         -1.19430       -0.65810        0.42710
O         -2.16550       -0.10860        0.88750
C          0.66900       -0.78390       -1.22790
C          1.95390       -0.08950       -1.66580
O          2.42370       -0.02170       -0.28890
C          1.28100       -0.75030        0.13780
H          0.96340        1.96840       -0.17230
H         -0.65710        1.94870       -0.90780
H         -0.48750        1.89040        0.84600
H         -1.13190       -1.77190        0.39210
H          0.15470       -1.57130       -1.76250
H          2.60990       -0.73920       -2.25380
H          1.87890        0.89640       -2.13510
H          1.40780       -1.48320        0.92610
