19
gdb 13562	2.84583	1.61731	1.1627	2.5597	72.63	-0.238	-0.0219	0.2161	1072.8814	0.162703	-365.042988	-365.033753	-365.032809	-365.077401	32.767
C          2.56600        0.10030        0.94910
C          1.29330       -0.70070        0.63320
C          0.11100       -0.01670        1.30650
O         -0.34960       -0.34010        2.37020
N          1.06260       -0.68970       -0.80700
C          1.77410       -1.66730       -1.62620
C          0.29730       -1.76850       -1.44720
C         -0.32720       -2.91690       -0.68370
H          3.42700       -0.35850        0.45420
H          2.47440        1.12790        0.58470
H          2.75070        0.11770        2.02650
H          1.38640       -1.70580        1.06930
H         -0.28880        0.84610        0.72660
H          2.20910       -1.29210       -2.54910
H          2.37830       -2.41590       -1.11360
H         -0.32760       -1.39410       -2.25680
H          0.35910       -3.36640        0.03780
H         -1.22440       -2.59580       -0.14330
H         -0.62710       -3.70200       -1.38540
