18
gdb 12120	3.01228	1.90523	1.60242	1.5307	67.02	-0.2549	0.0687	0.3236	891.1308	0.151374	-384.904672	-384.896246	-384.895302	-384.937141	32.05
C         -0.07910        1.39830       -0.67920
C         -0.08460        0.00840       -0.08140
C          1.12490       -0.82370       -0.13890
O          0.74190       -0.16420        1.07610
C         -1.43810       -0.65810        0.00450
O         -2.05070       -0.84100       -1.24820
C         -1.68160       -1.74450        1.00250
C         -2.32280       -0.38310        1.19460
H          0.92940        1.81790       -0.66790
H         -0.43080        1.37340       -1.71570
H         -0.73490        2.06510       -0.10870
H          1.03120       -1.90790       -0.12870
H          2.02630       -0.43490       -0.61020
H         -2.46440       -0.00920       -1.50230
H         -2.31910       -2.55760        0.67650
H         -0.87030       -2.01070        1.66880
H         -1.93610        0.24910        1.98640
H         -3.38810       -0.29850        1.00900
