15
gdb 4979	3.35526	2.2367	1.34384	1.3825	72.08	-0.1888	0.015	0.2038	867.0465	0.121239	-362.731421	-362.724498	-362.723554	-362.761949	27.764
N         -0.03500        1.42580       -0.13340
C         -0.02990        0.03180       -0.05630
C         -1.20240       -0.72190        0.02040
C         -1.16540       -2.11510        0.03780
C          0.05230       -2.78220       -0.02080
C          1.23450       -2.04350       -0.09420
C          1.19690       -0.65650       -0.11080
O          2.32160        0.12910       -0.17190
H          0.84220        1.84690        0.13710
H         -0.82260        1.86580        0.31950
H         -2.15470       -0.20110        0.06290
H         -2.09320       -2.67350        0.09780
H          0.09280       -3.86540       -0.00850
H          2.19670       -2.54860       -0.13540
H          3.09950       -0.43670       -0.17500
