12
gdb 12620	3.52593	2.07145	1.35226	3.4185	57.52	-0.2429	-0.1017	0.1411	827.5422	0.083137	-418.501641	-418.494684	-418.49374	-418.53311	25.023
O          0.44800        1.38520       -0.06880
C          0.22820        0.00360        0.07470
C          0.66520       -0.52270        1.41990
C         -0.23450       -1.33810        1.99610
C         -1.47890       -1.40360        1.20350
O         -2.46820       -2.07040        1.37170
C         -1.26030       -0.36970        0.06600
O         -2.09480        0.14340       -0.62770
H         -0.24270        1.71330       -0.66040
H          0.73690       -0.56420       -0.72580
H          1.63330       -0.26010        1.83230
H         -0.11270       -1.86580        2.93350
