13
gdb 5453	3.51765	1.96477	1.27056	3.2803	68.04	-0.2446	-0.0303	0.2143	886.3379	0.097551	-357.708562	-357.70146	-357.700515	-357.740221	25.267
C          0.03000        1.51510        0.08550
C          0.04270        0.02660        0.00130
C         -0.06760       -0.76630       -1.12960
N          0.00140       -2.07460       -0.67310
C          0.14550       -2.01140        0.67140
N          0.17420       -0.76960        1.10820
C         -0.21900       -0.43740       -2.49060
N         -0.34380       -0.16440       -3.61090
H          0.95850        1.88310        0.53370
H         -0.08230        1.96550       -0.90330
H         -0.79330        1.85720        0.72070
H         -0.04870       -2.90170       -1.24540
H          0.22480       -2.89740        1.28370
