18
gdb 11910	3.71517	1.73531	1.52911	1.7592	67.19	-0.2472	0.0781	0.3253	901.5636	0.15365	-384.927106	-384.919448	-384.918504	-384.959345	28.814
C          0.71810        1.30030        0.04940
C         -0.15460        0.05450       -0.10430
C          0.24620       -0.83340       -1.29530
C          1.32450       -1.70130       -0.67280
C          2.16490       -2.66210       -1.38540
O          2.69000       -1.39180       -0.98330
C          0.95460       -1.80210        0.80360
O         -0.03740       -0.80890        1.03820
H          1.78190        1.04280        0.03590
H          0.52920        2.00540       -0.76730
H          0.49330        1.79960        0.99580
H         -1.20820        0.34890       -0.15190
H         -0.60200       -1.45100       -1.60920
H          0.62110       -0.27940       -2.15790
H          2.57240       -3.52390       -0.85680
H          2.03970       -2.80050       -2.45910
H          0.53020       -2.78130        1.05970
H          1.84710       -1.63740        1.42120
