18
gdb 6439	4.18786	1.39253	1.2656	5.0378	72.34	-0.2426	0.0286	0.2712	1024.0903	0.153386	-343.985094	-343.976612	-343.975668	-344.017803	31.546
C          0.58320        1.57310       -0.04670
C         -0.06320        0.19460       -0.04370
C          0.31210       -0.75260       -1.21610
C          1.07370       -1.62640       -0.16520
C          2.60170       -1.60610       -0.28260
N          0.49430       -0.79420        0.91950
C          0.61030       -3.02370       -0.09380
N          0.25400       -4.12280       -0.06010
H          1.66190        1.51640       -0.22920
H          0.14080        2.20400       -0.82540
H          0.42710        2.07570        0.91450
H         -1.14430        0.30850        0.09600
H         -0.53180       -1.25490       -1.68860
H          0.95550       -0.32350       -1.98700
H          2.95760       -0.57760       -0.38830
H          3.06170       -2.04730        0.60730
H          2.93270       -2.18030       -1.15330
H          1.17820       -0.43200        1.57610
