14
gdb 4077	4.39905	1.62429	1.2542	1.826	61.91	-0.2506	-0.0098	0.2408	910.7777	0.108119	-415.820763	-415.813614	-415.812669	-415.852638	25.844
O         -0.04230        1.37620        0.03090
N          0.06960       -0.02080       -0.03200
C         -1.06520       -0.60110       -0.05640
C         -2.40210        0.08820       -0.07120
O         -3.32740       -0.55480       -0.96400
C         -3.12300       -1.86050       -1.25680
N         -2.18640       -2.63630       -0.91590
C         -1.10840       -2.10470       -0.08680
H          0.87740        1.65630       -0.02480
H         -2.84160        0.08690        0.93570
H         -2.30770        1.12090       -0.40470
H         -3.93300       -2.21660       -1.89060
H         -0.15080       -2.49400       -0.44330
H         -1.23990       -2.49500        0.93350
