18
gdb 7467	3.98172	1.39179	1.31097	2.0205	73.22	-0.2419	0.0478	0.2897	1016.5348	0.151436	-347.758524	-347.749859	-347.748915	-347.791976	31.874
C         -0.14740        1.70210       -0.22950
C          0.01250        0.19580       -0.09950
C         -1.31900       -0.51930        0.21110
C         -1.97600       -0.05050        1.42430
C         -2.51670        0.34100        2.42370
C          0.84170       -0.50190       -1.21000
C          1.83250       -0.82380       -0.07590
O          1.01710       -0.14090        0.89650
H          0.81980        2.16860       -0.43480
H         -0.83390        1.94920       -1.04710
H         -0.54810        2.12260        0.69650
H         -1.99000       -0.39060       -0.64920
H         -1.11940       -1.59410        0.29590
H         -2.99100        0.68010        3.31100
H          0.36270       -1.36310       -1.68030
H          1.21750        0.16650       -1.98650
H          1.95280       -1.88770        0.16310
H          2.82700       -0.37080       -0.16680
