20
gdb 8884	3.70708	1.15068	0.93259	2.8175	72.23	-0.2625	-0.0235	0.239	1298.4766	0.174298	-386.171978	-386.162088	-386.161144	-386.207242	34.954
C         -0.11370        1.61810       -0.11790
C         -0.23750        0.09410       -0.17700
C          0.84650       -0.53700       -1.07340
O          2.12800       -0.16790       -0.63810
C          0.74200       -2.06560       -1.11780
O          1.69750       -2.72490       -0.76040
C         -0.54230       -2.70220       -1.61110
C         -0.40630       -4.19520       -1.90800
H          0.87750        1.90490        0.24040
H         -0.25670        2.06350       -1.10870
H         -0.86390        2.04550        0.55410
H         -0.13890       -0.32840        0.83080
H         -1.22840       -0.18720       -0.55240
H          0.68680       -0.17760       -2.10680
H          2.58330       -1.00770       -0.46010
H         -1.30590       -2.53080       -0.83950
H         -0.89430       -2.14540       -2.48890
H          0.32530       -4.37210       -2.70120
H         -0.06530       -4.73680       -1.02290
H         -1.36560       -4.61240       -2.22540
