16
gdb 20119	4.36266	1.5939	1.26716	2.7764	67.33	-0.2473	0.0217	0.2691	960.516	0.130864	-379.892956	-379.885325	-379.884381	-379.925525	27.2
O         -0.00050        0.15390        0.00120
C         -0.01670        1.36390        0.00700
N          1.02590        2.15850       -0.48210
C          1.79090        3.06270        0.36450
C          2.40400        1.81870       -0.20260
N         -1.08010        2.12570        0.50330
C         -1.86940        3.01640       -0.33540
C         -2.44870        1.75130        0.22060
H          2.02160        4.03290       -0.06660
H          1.55610        3.07290        1.42520
H          2.57610        0.98180        0.46820
H          3.08580        1.88630       -1.04530
H         -2.12630        3.97620        0.10420
H         -1.63510        3.04230       -1.39590
H         -2.59800        0.91600       -0.45760
H         -3.13190        1.79300        1.06370
