15
gdb 11822	3.84571	1.67159	1.32302	3.1487	62.9	-0.2402	-0.0391	0.2012	915.2092	0.117772	-399.76387	-399.756074	-399.75513	-399.796462	28.015
O         -0.10830        1.49420       -0.01340
C          0.02580        0.09950        0.03910
C         -1.28610       -0.73900        0.15780
C         -0.78700       -1.63240       -0.99650
C         -0.65260       -3.11870       -1.00810
N         -1.52420       -2.43670       -1.96680
C          0.28400       -0.61310       -1.30860
O          0.96370       -0.32440       -2.25180
H          0.44820        1.80420       -0.73840
H          0.76170       -0.21130        0.79690
H         -1.47220       -1.22020        1.11890
H         -2.14780       -0.13100       -0.13070
H          0.23500       -3.57200       -1.44020
H         -1.09260       -3.65910       -0.17330
H         -2.49740       -2.50630       -1.67630
