16
gdb 9895	5.18066	1.12049	1.05248	3.3724	62.67	-0.275	0.0056	0.2805	1121.9188	0.128497	-420.878499	-420.870137	-420.869193	-420.912203	29.787
O          0.32260        1.22920       -0.35720
C          0.15200       -0.13570       -0.08920
C          1.14490       -1.00830       -0.81500
O          2.47910       -0.67650       -0.40150
C          3.21710        0.09250       -1.22740
O          4.29550        0.50740       -0.92610
C         -0.37070       -0.54170        1.26400
C         -1.26650       -0.60140        0.04300
H          1.05040        1.54680        0.18970
H          0.99410       -2.06550       -0.58230
H          1.04780       -0.86680       -1.89900
H          2.72010        0.28070       -2.19790
H         -0.02070       -1.47070        1.70080
H         -0.55410        0.25630        1.97430
H         -2.02660        0.16380       -0.05820
H         -1.53760       -1.57230       -0.35780
