14
gdb 7702	3.57743	1.99085	1.28898	1.4401	68.08	-0.2582	-0.0439	0.2143	882.1445	0.109711	-378.785747	-378.779105	-378.778161	-378.816871	25.1
N         -0.08830        1.31350       -0.22840
C         -0.03280        0.05690       -0.00390
N          1.15300       -0.68510        0.09370
C          1.29350       -2.03990        0.33320
O          2.38810       -2.55500        0.39260
C          0.00350       -2.82470        0.51400
C         -1.25880       -2.02660        0.40840
C         -1.26680       -0.71440        0.17240
H          0.84280        1.72290       -0.33040
H          2.03050       -0.19390       -0.02150
H          0.01660       -3.63870       -0.22270
H          0.06850       -3.33030        1.48650
H         -2.19330       -2.56550        0.53380
H         -2.17910       -0.13630        0.09590
