15
gdb 3519	5.69428	2.13848	2.01571	1.5957	56.51	-0.2473	0.074	0.3213	691.9407	0.125476	-345.606551	-345.600052	-345.599108	-345.637528	23.154
C          0.40350        1.40420        0.31960
O          1.22120        0.28940       -0.05530
C         -0.18760        0.08910        0.04910
C         -0.64340       -0.81320        1.16820
C          0.04800       -2.19800        1.24620
C          0.63280       -1.66650        2.56870
O         -0.10250       -0.42730        2.44770
H          0.51000        1.71900        1.35400
H          0.32260        2.19510       -0.42440
H         -0.69500       -0.07430       -0.90440
H         -1.74210       -0.83570        1.18780
H         -0.63000       -3.04640        1.34450
H          0.77400       -2.39190        0.45630
H          0.35220       -2.21490        3.47520
H          1.71460       -1.49460        2.56800
