17
gdb 11130	6.59358	0.98988	0.92624	4.2563	67.33	-0.239	0.0278	0.2668	1224.0619	0.141864	-400.999723	-400.991159	-400.990215	-401.034337	29.27
O          0.07350        1.24780       -0.41020
C          0.00570       -0.12020       -0.04250
C         -1.45210       -0.45240        0.20350
C         -2.35150       -0.46050       -1.06990
N         -2.55880       -1.89560       -0.85270
C         -1.77110       -1.96790        0.37610
C         -3.28700       -2.84580       -1.47390
O         -3.37240       -3.99990       -1.10340
H          0.98830        1.46540       -0.61140
H          0.40090       -0.77160       -0.83970
H          0.59020       -0.32530        0.86900
H         -1.84180        0.17940        1.00330
H         -3.26490        0.13960       -1.00000
H         -1.83030       -0.20860       -1.99970
H         -0.91210       -2.64570        0.31200
H         -2.35990       -2.23420        1.25960
H         -3.80150       -2.44960       -2.37440
