12
gdb 1051	7.84504	2.13557	1.73916	2.8014	52.12	-0.2212	0.0114	0.2326	684.9652	0.090865	-360.527122	-360.520858	-360.519914	-360.558357	21.373
C          0.05010        1.40400       -0.01900
O         -0.30620        0.03830       -0.26340
C          0.45440       -0.62770       -1.12890
C          0.86440       -1.91860       -1.18570
N          1.56760       -2.10770       -2.37340
C          1.55550       -0.95500       -2.94790
O          0.88860        0.01450       -2.25640
H          1.08040        1.47620        0.34690
H         -0.05920        2.00630       -0.92510
H         -0.64000        1.75900        0.74660
H          0.70230       -2.70870       -0.47270
H          2.00550       -0.65520       -3.88050
