19
gdb 18755	2.74128	2.32508	1.55717	1.5183	70.61	-0.2098	0.0531	0.2628	881.818	0.166134	-365.008424	-365.000614	-364.999669	-365.040981	29.799
C          0.26510        1.55020       -0.36030
C          0.03170        0.09440        0.02290
C          0.62730       -1.02530       -0.87700
N          1.22670       -1.72820        0.30320
C          2.65600       -1.34670        0.52940
C          2.24400       -0.26820        1.57150
O          2.65360        1.06550        1.36810
C          0.77500       -0.58870        1.20690
H          1.32100        1.75680       -0.53960
H         -0.29990        1.79020       -1.26850
H         -0.07240        2.22740        0.43110
H         -1.04280       -0.06390        0.16210
H         -0.10080       -1.64560       -1.40930
H          1.37540       -0.67720       -1.60030
H          3.25980       -2.17530        0.91360
H          3.14940       -0.92670       -0.35520
H          2.46510       -0.58430        2.60030
H          3.56480        1.14920        1.66650
H          0.14350       -0.84900        2.06180
