20
gdb 13870	3.96942	1.28319	1.22162	1.3313	77.49	-0.2275	0.0292	0.2567	1108.1541	0.177189	-349.02239	-349.01376	-349.012816	-349.055677	32.093
C         -0.00210        1.55890        0.04950
C         -0.04400        0.02450        0.03070
O          0.56240       -0.48740       -1.15860
C          0.69310       -0.58020        1.19100
C          0.14690       -1.18800        2.24480
C          1.17830       -1.70040        3.22050
C          2.48570       -1.02410        2.73070
C          2.20780       -0.59840        1.26720
H          1.02940        1.92030        0.00710
H         -0.54330        1.96800       -0.81250
H         -0.47350        1.94850        0.95660
H         -1.09790       -0.29310        0.08370
H          0.17660       -0.02190       -1.90760
H         -0.91840       -1.34670        2.38080
H          0.94430       -1.45540        4.26300
H          1.24030       -2.79740        3.17250
H          2.68000       -0.13350        3.33730
H          3.36000       -1.67330        2.82460
H          2.60410       -1.31840        0.54020
H          2.66550        0.36520        1.01750
