14
gdb 18179	4.9715	1.61232	1.3214	3.5137	69.57	-0.245	-0.0527	0.1923	888.6318	0.1092	-341.578687	-341.572324	-341.57138	-341.609211	24.279
N          0.07900       -1.12840        0.02350
C          0.01210        0.02800        0.02220
C         -0.02880        1.44720        0.01220
C         -1.12560        2.21750        0.05390
C         -0.74090        3.67490       -0.01480
N          0.73770        3.71010       -0.04040
C          1.38590        3.18000        1.16370
C          1.20050        2.30530       -0.02790
H         -2.14390        1.85920        0.13930
H         -1.13270        4.14710       -0.92560
H         -1.12710        4.25490        0.83280
H          2.35860        3.61480        1.37420
H          0.77540        2.96060        2.03720
H          2.03120        2.02550       -0.66820
