19
gdb 6909	4.07586	1.36317	1.24988	0.9192	77.7	-0.2256	0.04	0.2656	1055.3957	0.162512	-327.86451	-327.855358	-327.854414	-327.897702	34.212
C          1.00440        0.55670       -1.93520
C          0.40340       -0.42070       -0.94210
C         -1.11230       -0.38420       -0.87980
C          1.11160       -1.70310       -0.64860
N          1.03280       -0.65520        0.36660
C          2.23530        0.06930        0.80090
C          3.48450       -0.13490        0.06080
C          4.51950       -0.33370       -0.51970
H          2.09150        0.48500       -1.98710
H          0.60200        0.36750       -2.93630
H          0.73970        1.58790       -1.67080
H         -1.54810       -0.65730       -1.84770
H         -1.48440       -1.07610       -0.12080
H         -1.46820        0.62110       -0.62530
H          0.55190       -2.61000       -0.42920
H          2.07070       -1.86660       -1.13520
H          1.99540        1.13950        0.82290
H          2.41690       -0.22070        1.84390
H          5.43540       -0.49570       -1.03240
