13
gdb 5358	5.54545	1.56044	1.21777	1.6094	68.36	-0.2654	-0.0831	0.1823	907.3817	0.097846	-361.531106	-361.524893	-361.523949	-361.561669	22.879
O         -0.07870       -0.02720       -0.00250
C         -0.01120        1.17760        0.00690
C          1.26150        1.94510       -0.00060
C          2.49450        1.28980       -0.01990
C          3.65040        2.05980       -0.02610
N          3.65050        3.39870       -0.01470
C          2.46700        4.01520        0.00370
C          1.24930        3.33880        0.01140
H         -0.92780        1.80810        0.02230
H          2.52870        0.20660       -0.02950
H          4.62750        1.58370       -0.04100
H          2.49220        5.10200        0.01270
H          0.31160        3.88610        0.02640
