20
gdb 16767	3.83226	1.58181	1.50934	1.1516	74.47	-0.2457	0.0818	0.3275	959.2874	0.178641	-348.997222	-348.989622	-348.988677	-349.028947	29.59
C          0.25790        0.72410        0.58950
O          0.13660       -0.50600       -0.08340
C          0.57840       -0.47730       -1.43820
C          2.12240       -0.55570       -1.57190
C          2.44900       -2.03580       -1.70790
C          1.82490       -2.98580       -0.71350
C          1.17250       -2.77020       -2.05780
C          0.04790       -1.74830       -2.13700
H          1.30340        1.04810        0.70200
H         -0.29220        1.52410        0.06850
H         -0.17200        0.59140        1.58560
H          0.18440        0.43530       -1.90960
H          2.43960       -0.02310       -2.47680
H          2.62200       -0.07310       -0.72520
H          3.39570       -2.31190       -2.15940
H          2.32830       -3.93410       -0.55710
H          1.34340       -2.57440        0.16600
H          1.17410       -3.58750       -2.77060
H         -0.88340       -2.07050       -1.66190
H         -0.17350       -1.52470       -3.18700
