13
gdb 1716	5.01651	2.13351	1.91106	0.5876	50.59	-0.2607	-0.0478	0.2129	681.1821	0.100506	-381.570969	-381.564358	-381.563413	-381.60161	23.676
O          0.10430        1.48630       -0.07550
C         -0.00430        0.11100        0.02160
C          0.13580       -0.54380        1.42820
O         -1.05720       -1.32120        1.21720
C         -1.42930       -0.51550        0.08390
C          0.86530       -0.57300       -1.00570
O          1.54270        0.05620       -1.78210
H          0.72870        1.65500       -0.80040
H          1.01090       -1.17070        1.63240
H          0.02090        0.20770        2.21970
H         -2.17870        0.24740        0.33030
H         -1.77600       -1.12030       -0.76140
H          0.84270       -1.68090       -1.00240
