18
gdb 18390	3.03811	2.39219	1.57892	1.0764	73.89	-0.2277	0.0203	0.248	847.1195	0.156363	-347.789573	-347.782784	-347.781839	-347.820449	26.975
C          0.23060        1.45890       -0.41290
C          1.35200        0.49860       -0.14510
C          2.28660        0.72780        1.02650
O          1.68010        1.40000        2.11050
C          1.01970        0.56840        3.04330
C         -0.26950       -0.05930        2.58870
C         -0.70790       -0.27200        1.34600
C         -0.07440        0.03200        0.04030
H          0.07310        2.23430        0.32740
H         -0.00130        1.73510       -1.43560
H          1.86450        0.09080       -1.01400
H          2.72270       -0.22700        1.36310
H          3.11470        1.36860        0.69870
H          1.71090       -0.22060        3.39520
H          0.81680        1.20780        3.91120
H         -0.90890       -0.37620        3.41150
H         -1.68500       -0.74310        1.25220
H         -0.44200       -0.61000       -0.75560
