15
gdb 368	5.62304	2.78995	1.93208	0.8775	55.68	-0.2427	0.0334	0.2761	667.2341	0.129176	-287.697316	-287.689416	-287.688472	-287.729866	25.912
C         -0.00250        1.38550        0.02800
O          0.05520       -0.03900       -0.00840
C          0.64350       -0.58450       -1.09740
C          0.64100       -2.09020       -1.01330
N          1.10790        0.14790       -2.02120
C          1.72490       -0.48730       -3.17170
H          1.00190        1.81750       -0.00080
H         -0.56520        1.77510       -0.82520
H         -0.50220        1.63670        0.96490
H          0.12280       -2.51950       -1.87690
H          1.66590       -2.47530       -1.02890
H          0.15020       -2.42400       -0.09920
H          2.50190       -1.21680       -2.89980
H          0.98820       -1.01320       -3.79660
H          2.19360        0.27850       -3.79560
