18
gdb 13938	3.47131	1.78426	1.47334	2.3469	67.35	-0.2452	0.0694	0.3147	918.0321	0.153247	-384.905903	-384.898104	-384.89716	-384.938378	28.709
C         -0.45200        1.38840        0.11030
C          0.15160        0.00500        0.00540
O          1.35050       -0.02060       -0.80950
C          2.06060       -0.79510        0.17660
C          0.92290       -0.61520        1.19550
C          1.11500        0.07490        2.55990
C          0.52830       -1.22600        3.13900
O          0.37050       -1.78440        1.81540
H          0.26990        2.10430        0.51490
H         -0.75860        1.73920       -0.88000
H         -1.33840        1.37530        0.75390
H         -0.58900       -0.71690       -0.36970
H          2.19410       -1.84280       -0.12440
H          3.03430       -0.35640        0.42650
H          2.15190        0.28730        2.82650
H          0.51420        0.97190        2.71780
H          1.20860       -1.82500        3.75520
H         -0.43270       -1.13170        3.65750
