18
gdb 16969	3.24875	2.17158	1.94597	1.7993	65.47	-0.2502	0.0703	0.3206	786.78	0.157043	-384.952421	-384.945797	-384.944852	-384.983029	26.752
O          0.01620        1.44160       -0.08770
C          0.02810        0.02820        0.01680
C          0.61470       -0.53910        1.34980
C         -0.59810       -1.32210        1.89660
C         -1.65570       -0.34420        2.45320
C         -2.23110        0.25680        1.13540
C         -1.41800       -0.52080        0.07940
O         -1.21650       -1.80130        0.68800
H          0.92450        1.74350       -0.17880
H          0.54280       -0.41310       -0.84620
H          1.46040       -1.20650        1.16680
H          0.94220        0.26880        2.01030
H         -0.35800       -2.16800        2.54100
H         -2.42070       -0.88650        3.01380
H         -1.22070        0.40910        3.11470
H         -3.29630        0.04200        1.02770
H         -2.08140        1.33310        1.05130
H         -1.89900       -0.64300       -0.89060
