16
gdb 14449	3.58145	2.39753	2.02366	1.7042	68.14	-0.2262	-0.0038	0.2224	736.5806	0.130521	-346.534735	-346.528433	-346.527488	-346.564667	25.856
C          0.04420        1.48030       -0.11380
C         -0.00780       -0.00750        0.01730
O          0.55050       -0.83470       -1.06660
C          0.05900       -1.79910       -0.07980
C          0.61810       -0.95820        1.11530
C         -0.37990       -1.05740        2.24860
C         -1.57330       -1.06910        1.64260
C         -1.24880       -0.97640        0.16740
H          1.08040        1.82120       -0.20020
H         -0.50260        1.80570       -1.00410
H         -0.40760        1.94700        0.76700
H          0.18110       -2.86240       -0.29990
H          1.69250       -0.92910        1.29050
H         -0.14980       -1.10100        3.30410
H         -2.56050       -1.12460        2.08010
H         -2.02450       -0.96530       -0.59680
