16
gdb 15215	2.61032	1.6525	1.29074	3.0678	72.43	-0.2442	-0.0244	0.2198	997.4276	0.127962	-346.56997	-346.561478	-346.560534	-346.602956	30.795
C         -0.12600        1.56920        0.08780
C          0.03190        0.06850       -0.01910
C          0.66920       -0.61890       -1.21950
C          1.23530        0.15120       -2.35360
O          1.12350       -0.19200       -3.50600
C          1.36860       -0.61220        0.15650
C          2.56760        0.14550        0.37340
C          3.57550        0.76720        0.58560
H          0.78090        2.10180       -0.20490
H         -0.95130        1.92120       -0.53920
H         -0.34780        1.84720        1.12310
H         -0.80360       -0.49280        0.39010
H          0.23760       -1.56550       -1.52640
H          1.78440        1.07570       -2.08090
H          1.35580       -1.57580        0.65750
H          4.46950        1.31140        0.76540
