13
gdb 2634	15.36347	0.96061	0.95661	3.4488	57.61	-0.2789	0.0011	0.28	1133.2561	0.099399	-344.440065	-344.432332	-344.431387	-344.472938	25.81
O          0.14600        0.04300       -0.21070
C          0.17840        1.23470       -0.24610
O          0.87610        1.97240        0.64120
C          0.88000        3.39240        0.48220
C          2.26270        3.85720        0.00170
C          2.33110        5.30800       -0.10310
C          2.34650        6.50700       -0.17760
H         -0.35610        1.85650       -0.99170
H          0.10290        3.70370       -0.22580
H          0.64830        3.82630        1.45770
H          3.02040        3.48560        0.70120
H          2.47970        3.39430       -0.96890
H          2.37930        7.56620       -0.24820
