15
gdb 6355	5.06157	1.13003	0.97275	3.3303	59.28	-0.2481	-0.0049	0.2432	1159.1958	0.117694	-437.007339	-436.998618	-436.997674	-437.041777	29.925
C          0.28750        1.47170       -0.13250
O         -0.18310        0.22610       -0.67130
C          0.75690       -0.70300       -0.88970
O          1.93380       -0.52190       -0.66390
C          0.14920       -1.98320       -1.42110
C          0.92270       -2.69560       -2.54750
N          2.27310       -2.68790       -2.41460
O          0.32380       -3.26670       -3.43590
H          1.00740        1.93420       -0.81170
H         -0.59750        2.09810       -0.02600
H          0.76640        1.31380        0.83680
H          0.09640       -2.68220       -0.57600
H         -0.86730       -1.81240       -1.77090
H          2.70440       -2.05480       -1.75550
H          2.81480       -3.08810       -3.16330
