13
gdb 21795	6.26729	1.17804	1.09227	3.8345	60.42	-0.2482	-0.0273	0.221	1026.989	0.096169	-394.787297	-394.780228	-394.779284	-394.820571	24.214
O         -0.41070        0.87040        0.95320
C          0.07070        1.11130       -0.12170
C          1.46260        1.69930       -0.32740
C          1.42980        2.87630       -1.25030
C          1.27450        4.21660       -0.97470
N          1.28000        4.80140       -2.19440
N          1.42370        3.89610       -3.17810
N          1.51250        2.73050       -2.60710
H         -0.48170        0.91900       -1.06790
H          1.88080        1.94950        0.65010
H          2.08280        0.91870       -0.78570
H          1.17160        4.77250       -0.05820
H          1.20380        5.77820       -2.43050
