16
gdb 5322	4.54867	1.44401	1.31946	4.7112	66.26	-0.2275	0.0242	0.2517	962.5211	0.132056	-379.961449	-379.953825	-379.95288	-379.993903	28.296
C          0.04030        1.51050       -0.15700
C          0.02380       -0.00190        0.10910
O          0.57680       -0.29310        1.38570
C         -1.36640       -0.56850        0.01130
C         -2.00130       -1.22940       -1.00560
N         -3.27040       -1.49760       -0.53360
C         -3.34430       -1.00320        0.73170
N         -2.21710       -0.43450        1.09020
H          1.05350        1.89840       -0.01920
H         -0.29060        1.73630       -1.17650
H         -0.62900        2.02160        0.54230
H          0.66660       -0.49960       -0.62740
H         -0.15750       -0.22250        2.00990
H         -1.68340       -1.53050       -1.98970
H         -3.99840       -1.98480       -1.02840
H         -4.23480       -1.08980        1.33610
