14
gdb 14498	3.75991	2.07096	1.57103	4.1935	62.21	-0.26	0.0179	0.2779	795.9314	0.107528	-378.648712	-378.641819	-378.640875	-378.679528	26.328
N          0.00500        1.51040       -0.05670
C         -0.00350        0.06390       -0.01380
C          0.94330       -0.56660       -0.94520
N          1.72130       -0.94270       -1.71390
C         -0.11220       -0.64770        1.37750
C         -1.55350       -0.11510        1.53990
C         -1.37760       -0.67780        0.11170
O         -0.64890       -1.83130        0.67650
H          0.93560        1.86000        0.15480
H         -0.21420        1.83260       -0.99550
H          0.67740       -0.80630        2.11130
H         -2.18300       -0.72800        2.18370
H         -1.69630        0.95710        1.65710
H         -2.10680       -0.87270       -0.67400
