16
gdb 15738	3.37115	1.53794	1.15175	1.0066	69.15	-0.2553	-0.0222	0.2331	1028.1466	0.131437	-379.941121	-379.933223	-379.932279	-379.974683	28.319
N          0.44120        1.33050       -1.55060
C          0.04850        0.52590       -0.64010
N         -1.35150        0.44140       -0.51160
C         -2.16250       -0.28670        0.32360
O         -1.82930       -1.06530        1.18750
C          0.87750       -0.30830        0.27390
C          2.18820       -0.87990       -0.23890
C          2.21190        0.23420        0.75630
H          1.45750        1.36060       -1.60890
H         -1.81900        1.04470       -1.17590
H         -3.22500       -0.06670        0.10310
H          0.31560       -0.91540        0.96700
H          2.44750       -1.88040        0.08760
H          2.45710       -0.65850       -1.26630
H          2.49720        1.22370        0.41500
H          2.48780        0.01600        1.78150
