18
gdb 8907	3.73927	1.16385	1.05635	0.3961	69.64	-0.265	0.0305	0.2954	1158.7342	0.15027	-384.895434	-384.885511	-384.884567	-384.929952	35.393
C          0.08920        1.58510       -0.02350
C          0.02210        0.05600        0.04180
C          0.75940       -0.48890        1.26710
O          2.12350       -0.10500        1.16690
C         -1.43130       -0.47910        0.03620
O         -2.17360       -0.04580        1.17700
C         -2.12790       -0.15550       -1.21200
C         -2.70460        0.14240       -2.22420
H          1.13040        1.91160       -0.01170
H         -0.38860        1.96390       -0.93120
H         -0.40740        2.03640        0.84360
H          0.51510       -0.35710       -0.84770
H          0.29230       -0.09130        2.17940
H          0.66130       -1.58670        1.29770
H          2.56230       -0.34050        1.98910
H         -1.39070       -1.57150        0.13570
H         -2.45950        0.85880        1.01120
H         -3.21880        0.38880       -3.12040
