13
gdb 15465	3.06468	2.10364	1.49122	1.8862	60.31	-0.2711	0.0045	0.2756	830.2057	0.095425	-398.565154	-398.558086	-398.557142	-398.596762	25.62
N         -0.00610        1.27440       -0.26670
C          0.00850        0.04290       -0.01900
O          1.09420       -0.72900        0.26720
C          0.64050       -2.06450        0.50490
O         -0.61330       -2.17700       -0.11310
C         -1.21070       -0.88280       -0.00560
C         -2.00610       -0.72850        1.21270
C         -2.65240       -0.62150        2.21910
H          0.93120        1.67470       -0.20940
H          1.33410       -2.76850        0.04000
H          0.58060       -2.22740        1.59090
H         -1.82650       -0.72130       -0.89300
H         -3.23060       -0.51670        3.10440
