21
gdb 7444	3.01642	1.42552	1.24247	3.4304	76.07	-0.2311	0.0371	0.2682	1119.7059	0.18635	-366.302986	-366.292738	-366.291793	-366.338405	36.247
C         -0.48430        1.36430       -0.41890
C         -0.20340       -0.13900       -0.30060
C         -1.48750       -0.97550       -0.36790
N          0.79040       -0.58740       -1.29210
C          0.53520       -0.32120       -2.69810
C          1.96720       -1.13600       -0.83880
C          3.00130       -1.51980       -1.88980
O          2.19000       -1.32060        0.34790
H          0.44140        1.94260       -0.34430
H         -0.97380        1.62000       -1.36530
H         -1.14930        1.68320        0.38950
H          0.27790       -0.32910        0.65980
H         -2.02270       -0.84060       -1.31470
H         -1.26270       -2.03890       -0.24880
H         -2.16970       -0.67870        0.43500
H          0.93320        0.64840       -3.02830
H          0.96410       -1.09910       -3.33110
H         -0.54220       -0.31730       -2.87920
H          3.25250       -0.68470       -2.55070
H          3.89620       -1.84430       -1.36020
H          2.64680       -2.34370       -2.51850
