18
gdb 7408	2.91361	1.59028	1.25719	3.835	68.3	-0.2447	-0.0283	0.2164	1038.8479	0.149285	-384.987152	-384.977202	-384.976257	-385.022785	33.945
C         -0.02630        1.72270        0.66710
C         -0.08290        0.28660        0.11730
C          0.69060       -0.65050        1.05540
C          2.18650       -0.75980        0.82940
O          0.13000       -1.25170        1.94310
C         -1.53640       -0.18150       -0.07760
C         -1.73880       -1.59980       -0.57270
O         -2.46400        0.56170        0.13450
H          1.00390        2.08410        0.72890
H         -0.59480        2.39140        0.01850
H         -0.47530        1.76480        1.66220
H          0.40240        0.25920       -0.86900
H          2.64640        0.22790        0.72480
H          2.64920       -1.30510        1.65260
H          2.37200       -1.29600       -0.10940
H         -1.03880       -1.84850       -1.37750
H         -1.54770       -2.29080        0.25430
H         -2.76620       -1.72470       -0.91670
