15
gdb 9701	3.81522	1.59563	1.57713	3.3762	66.09	-0.2608	0.0085	0.2693	869.3266	0.119073	-362.683245	-362.67591	-362.674966	-362.714746	27.684
O         -0.10640        1.44910        0.02810
C         -0.01060        0.03150        0.02510
C          0.59780       -0.50610        1.35990
C         -0.62020       -0.84360        2.18090
C         -1.73310       -0.84200        1.45210
C         -1.47360       -0.49630        0.00880
C          0.76780       -0.41020       -1.14950
N          1.40160       -0.73470       -2.06020
H          0.78450        1.81470        0.07680
H          1.22850       -1.38750        1.18980
H          1.23740        0.26030        1.81330
H         -0.55700       -1.08050        3.23640
H         -2.72530       -1.08010        1.81670
H         -2.12530        0.28850       -0.38660
H         -1.58020       -1.37040       -0.64430
