17
gdb 14535	4.32767	1.57301	1.41659	4.3722	72.94	-0.2774	0.0353	0.3128	924.4514	0.14296	-326.715781	-326.708324	-326.707379	-326.747164	28.521
C         -0.03270        1.53520        0.01200
C          0.07180        0.01700        0.04310
C         -1.10000       -0.63680       -0.49670
N         -2.04710       -1.13870       -0.93260
C          1.34860       -0.77340       -0.22250
C          2.57770       -0.03610        0.32240
C          1.92990       -0.05100        1.74670
C          0.71750       -0.78830        1.16560
H          0.85980        2.00870        0.42270
H         -0.16160        1.88940       -1.01500
H         -0.89380        1.87210        0.59650
H          1.35780       -1.54920       -0.97790
H          3.47620       -0.65430        0.27700
H          2.80670        0.93640       -0.12210
H          2.49120       -0.67670        2.44310
H          1.73750        0.91190        2.22810
H          0.16070       -1.57740        1.65530
