18
gdb 14948	4.23469	1.4573	1.15082	2.8905	68.26	-0.2525	-0.0261	0.2265	1032.0205	0.154404	-384.961353	-384.953756	-384.952812	-384.993672	28.292
O         -0.90100        1.14350        0.08240
C          0.23810        0.75930        0.03210
C          1.44540        1.68290        0.04170
C          1.30690        2.84190        1.03580
C          2.59850        3.67010        1.04810
C          3.81150        2.75330        1.26710
C          3.79290        1.60090        0.26120
O          2.57320        0.87280        0.31520
H          0.50390       -0.31860       -0.03610
H          1.52910        2.10260       -0.98140
H          0.43420        3.44220        0.76460
H          1.11860        2.42470        2.03250
H          2.70550        4.19160        0.08690
H          2.55140        4.44330        1.82160
H          4.74990        3.31050        1.16830
H          3.78420        2.33700        2.28150
H          3.94480        1.99180       -0.76020
H          4.58610        0.87620        0.46500
