16
gdb 3247	5.84072	2.32372	2.10228	1.6272	64.85	-0.2232	0.0845	0.3077	677.5094	0.138058	-288.57311	-288.56711	-288.566166	-288.602586	24.005
C         -0.05210        1.49960       -0.05330
C          1.26980        0.76210        0.01630
C         -0.02320        0.00450       -0.00840
C         -0.54160       -0.95940        1.09070
C         -0.95600       -1.91780       -0.03710
N         -1.92280       -1.17860       -0.88730
C         -0.45980       -0.97600       -1.07790
H         -0.38580        2.02740        0.83420
H         -0.32590        1.98050       -0.98660
H          1.89210        0.74420       -0.87340
H          1.82800        0.79290        0.94690
H          0.26300       -1.35410        1.71700
H         -1.36130       -0.59880        1.71790
H         -0.94740       -3.00030       -0.01860
H         -2.22410       -1.82670       -1.61620
H          0.01070       -1.16940       -2.03500
