17
gdb 9207	6.11265	0.95378	0.85854	4.782	67.89	-0.2484	-0.0272	0.2212	1334.8811	0.13953	-401.012782	-401.003535	-401.002591	-401.047862	31.384
C          0.36930        1.38270       -0.10280
C         -0.09470       -0.06930       -0.19420
C          0.52940       -0.83330       -1.35000
O          1.15550       -0.30390       -2.23550
C          0.33640       -2.35470       -1.31570
O          0.56490       -2.98060       -2.55460
C          1.84980       -3.05200       -2.97790
N          2.10240       -3.55870       -4.10320
H          1.44620        1.43900        0.07780
H          0.16730        1.91130       -1.03700
H         -0.14380        1.90130        0.71130
H          0.10330       -0.61800        0.73700
H         -1.18480       -0.12490       -0.32950
H          0.99220       -2.75710       -0.52590
H         -0.69090       -2.59810       -1.02880
H          2.57390       -2.66210       -2.25270
H          3.10690       -3.55790       -4.26600
