14
gdb 9225	6.51124	0.95099	0.85568	6.7861	56.53	-0.2673	-0.0373	0.23	1253.1134	0.103625	-456.82865	-456.819858	-456.818913	-456.863108	29.105
O         -0.31990        1.22630       -0.45340
C         -0.14180       -0.05210        0.08610
C         -1.45130       -0.82320        0.02210
O         -2.51140       -0.32410       -0.24590
C         -1.32830       -2.32620        0.30710
O         -2.54610       -2.87980        0.76160
C         -3.53090       -3.04250       -0.15850
O         -4.61700       -3.42790        0.14260
H          0.49500        1.72250       -0.33290
H          0.63050       -0.64170       -0.44080
H          0.15810       -0.03480        1.14990
H         -0.97870       -2.81670       -0.61460
H         -0.58370       -2.52490        1.08270
H         -3.20130       -2.81560       -1.18800
