12
gdb 21541	3.67907	1.90715	1.25734	2.8172	61.81	-0.2364	-0.0675	0.1688	869.2942	0.085555	-410.850968	-410.844136	-410.843192	-410.882046	24.734
N          0.08830        1.39820        0.13840
C         -0.01710        0.03470        0.04080
C         -1.14250       -0.79050        0.01250
N         -0.58950       -2.04480       -0.02440
N          0.72900       -2.00830       -0.01610
N          1.09730       -0.74810        0.02120
C         -2.56960       -0.58170        0.02390
O         -3.38120       -1.48780       -0.00610
H          1.01060        1.74600       -0.08140
H         -0.65530        1.94580       -0.26500
H         -1.09140       -2.91980       -0.05440
H         -2.88860        0.48110        0.06500
