14
gdb 12614	2.90031	2.22065	1.35314	3.74	58.15	-0.2476	-0.0546	0.1929	860.6874	0.105863	-419.715874	-419.708483	-419.707539	-419.747992	26.874
O          0.40850        1.09450       -0.68400
C          0.01140       -0.06840       -0.04880
C          0.55620       -0.24440        1.36110
O          1.46940        0.41060        1.79670
C         -0.30720       -1.26380        2.09750
C         -1.63510       -1.32010        1.29720
C         -1.49550       -0.28050        0.17040
O         -2.38920        0.27260       -0.40380
H          1.11060        1.47050       -0.13080
H          0.32990       -0.97840       -0.60360
H          0.21110       -2.22830        2.11710
H         -0.43250       -0.94950        3.13640
H         -1.80900       -2.30550        0.85250
H         -2.51620       -1.08150        1.89620
