15
gdb 3062	11.12109	0.98167	0.96411	2.098	67.62	-0.2459	0.0276	0.2735	1214.2296	0.123638	-308.468418	-308.460507	-308.459562	-308.503255	26.693
C          0.02550        1.55410        0.05420
C         -0.01730        0.01590       -0.00610
C         -1.37570       -0.51460       -0.03080
C         -2.50360       -0.93830       -0.05350
C         -3.85640       -1.42440       -0.05320
C         -4.39860       -2.23300       -1.16340
O         -4.05790       -2.84370        0.07390
H          1.06160        1.90410        0.07270
H         -0.47100        1.99150       -0.81620
H         -0.47930        1.92220        0.95130
H          0.52560       -0.33250       -0.89400
H          0.51730       -0.40020        0.85740
H         -4.56510       -0.83320        0.52640
H         -5.46320       -2.17980       -1.38880
H         -3.74900       -2.47510       -2.00240
