14
gdb 19330	4.76076	1.76586	1.54936	5.2215	66.57	-0.2491	-0.0008	0.2483	816.0576	0.107944	-341.50505	-341.498727	-341.497783	-341.53534	24.802
N          0.13580       -1.11580        0.01910
C          0.06220        0.03940        0.01460
C         -0.01340        1.46190       -0.00450
C          0.26850        2.27230       -1.25240
C          1.09650        2.51240       -0.03100
C          0.32730        3.22720        1.09210
C         -1.08700        3.53140        0.79130
N         -0.72190        2.14800        1.15810
H          0.77120        1.68990       -2.01770
H         -0.43520        2.99390       -1.64900
H          2.16320        2.33990       -0.00070
H          0.81960        3.56260        1.99810
H         -1.65580        4.00660        1.58520
H         -1.43580        3.77800       -0.20400
