15
gdb 20907	5.02902	1.41137	1.19821	1.7061	64.08	-0.2288	0.0026	0.2314	998.4394	0.120338	-395.991231	-395.983758	-395.982814	-396.02375	26.917
C         -0.07250        1.52210        0.11790
C          0.04120       -0.00180        0.07090
N          0.75120       -0.54400        1.21740
N          2.01680       -0.92240        1.15640
C          2.31640       -1.27760        2.40890
C          1.17060       -1.08010        3.19390
O          1.03190       -1.31820        4.51090
N          0.18770       -0.61170        2.43110
H          0.91870        1.98410        0.11760
H         -0.62280        1.88170       -0.75670
H         -0.60550        1.83970        1.01760
H         -0.94950       -0.46440        0.04920
H          0.59970       -0.33190       -0.80660
H          3.28980       -1.64940        2.68060
H          0.12750       -1.08600        4.75450
