16
gdb 14866	2.51452	2.16752	1.2877	2.2218	61.18	-0.2486	-0.0367	0.2119	937.192	0.128232	-420.844783	-420.836505	-420.835561	-420.878063	28.536
C         -0.64920        1.09340       -0.37050
O          0.35070        0.16920        0.03850
C          0.90160       -0.56130       -1.00980
C          2.06600       -1.46750       -0.58210
O          1.40840       -2.64360       -1.10640
C          0.21370       -1.91050       -1.42470
C         -0.96390       -2.32220       -0.56200
O         -2.07520       -1.87800       -0.69610
H         -0.24370        1.81280       -1.09730
H         -1.51280        0.58160       -0.81020
H         -0.96600        1.63180        0.52470
H          1.11680        0.08100       -1.87390
H          3.03330       -1.28870       -1.06220
H          2.19110       -1.50970        0.50610
H         -0.06280       -1.99750       -2.48280
H         -0.70960       -3.07740        0.21430
