11
gdb 20335	6.06217	1.35732	1.31225	4.6448	57.04	-0.3026	-0.0525	0.25	897.7255	0.071758	-389.663797	-389.657054	-389.656109	-389.696109	22.987
C         -0.02250       -1.22100       -0.00490
C          0.00040       -0.02180        0.00200
C          0.00990        1.43390        0.01020
N          1.36520        1.99070        3.59640
N          2.06750        2.25000        1.09210
N          3.20490        2.69840        0.66060
N          3.19070        2.70830       -0.68890
N          2.04440        2.26590       -1.10280
H         -0.03850       -2.28370       -0.01130
H         -0.49620        1.83870       -0.87010
H         -0.47900        1.82870        0.90460
