14
gdb 2067	5.00499	2.62211	1.84241	2.0038	54.75	-0.2642	0.0132	0.2774	669.8514	0.115801	-361.72362	-361.717616	-361.716672	-361.753597	22.244
N         -0.06030        1.31410       -0.14830
C         -0.01840        0.06460        0.03730
C         -1.27030       -0.78120        0.08960
C         -1.09880       -1.97590        1.02900
O          0.11630       -2.64680        0.71150
C          1.19750       -1.80350        0.91230
O          1.16550       -0.62450        0.09950
H          0.88910        1.69190       -0.19130
H         -2.11390       -0.14910        0.37150
H         -1.45380       -1.16040       -0.92290
H         -1.08060       -1.64950        2.08120
H         -1.90390       -2.70340        0.90830
H          1.25570       -1.48660        1.96770
H          2.10250       -2.34050        0.62500
