18
gdb 14265	3.01885	2.61007	1.83201	1.2002	72.1	-0.2341	0.0144	0.2485	786.4123	0.156441	-347.784291	-347.777844	-347.776899	-347.814474	26.417
C          0.06840        1.59540       -0.19300
C          1.56570        1.42090        0.18510
C          1.17080        0.10170        0.90250
C         -0.10320        0.05280        0.00280
C          0.12980       -0.71380       -1.27220
C          1.26310       -0.68690       -1.97430
C          2.52810        0.06590       -1.62570
O          2.41480        1.30490       -0.94330
H         -0.47400        2.16700        0.56650
H         -0.13630        2.00430       -1.18400
H          2.01420        2.20530        0.80070
H          1.85950       -0.74450        0.86330
H          0.91750        0.30240        1.94700
H         -1.02640       -0.27520        0.48540
H         -0.69750       -1.31290       -1.64400
H          1.33800       -1.28490       -2.88010
H          3.20010       -0.61190       -1.07020
H          3.05590        0.31720       -2.55200
