18
gdb 13947	4.82721	1.3116	1.21749	0.7125	77.3	-0.2487	0.0532	0.3019	1044.5758	0.153328	-310.607215	-310.599412	-310.598468	-310.639489	29.997
C         -0.07390       -1.19380        0.26850
C         -0.06670       -0.00560        0.08720
C         -0.02360        1.43750       -0.14310
C          1.38380        1.98970       -0.12720
C          2.08240        2.40640        1.13540
C          1.87470        3.43050        0.04940
C          2.91730        3.23190       -1.05700
C          2.42250        1.75780       -1.23470
H         -0.08940       -2.24260        0.43260
H         -0.49970        1.66140       -1.10790
H         -0.62590        1.94810        0.61970
H          1.44120        2.51470        2.00510
H          3.08180        2.04110        1.36430
H          1.29990        4.33300        0.22360
H          2.72820        3.84040       -1.94410
H          3.96140        3.36970       -0.75720
H          3.14810        0.95960       -1.05060
H          1.96690        1.59220       -2.21440
