15
gdb 13655	5.58743	0.87094	0.80191	4.3327	76.06	-0.2628	-0.0615	0.2014	1380.7358	0.117172	-362.614015	-362.605452	-362.604508	-362.64826	29.125
C         -0.08370        1.52000       -0.11950
C         -0.00460        0.02280        0.02940
N          1.30090       -0.60090       -0.16330
C          0.68660       -0.64520        1.19000
C          1.32380        0.10300        2.22990
C          1.82700        0.72010        3.14020
C          2.45710        1.47790        4.18710
O          2.29880        1.28060        5.37090
H          0.80990        1.99610        0.28900
H         -0.16370        1.79040       -1.17740
H         -0.96150        1.91530        0.40140
H         -0.87480       -0.52340       -0.33390
H          1.20940       -1.51640       -0.59660
H          0.25870       -1.59140        1.51360
H          3.12280        2.28550        3.81950
