15
gdb 11280	5.12925	1.26231	1.06149	4.1095	70.16	-0.2678	-0.0462	0.2216	1057.5739	0.119785	-362.690273	-362.682758	-362.681814	-362.722317	27.406
O         -0.07470        1.45770        0.02720
C          0.04290        0.04250       -0.01640
C         -1.37010       -0.57740       -0.05570
C         -1.28350       -1.78580       -1.01600
C         -0.03110       -1.48050       -1.82140
C          0.68580       -0.48920       -1.27890
C          0.32040       -2.21290       -2.98900
N          0.57840       -2.82710       -3.93670
H          0.78940        1.83170        0.22620
H          0.60970       -0.31300        0.86050
H         -1.74100       -0.84460        0.93540
H         -2.03510        0.18640       -0.46890
H         -1.16210       -2.73300       -0.47630
H         -2.16760       -1.89790       -1.65030
H          1.62900       -0.11870       -1.66370
