13
gdb 20648	7.60542	1.24863	1.07975	5.4638	63.12	-0.2657	-0.0713	0.1944	1029.0066	0.094545	-398.606927	-398.599614	-398.59867	-398.639041	25.225
C          0.03160        1.50390        0.01620
C         -0.08830        0.02260        0.05220
C         -1.10780       -0.85190       -0.15890
C         -0.51110       -2.12910        0.04330
C         -1.18190       -3.44870       -0.06280
O         -0.65140       -4.51450        0.11380
N          0.76650       -2.02550        0.35150
O          1.02990       -0.67260        0.35650
H          0.77250        1.81790       -0.72600
H         -0.92980        1.95220       -0.24000
H          0.35140        1.89380        0.98770
H         -2.12930       -0.62800       -0.41870
H         -2.25890       -3.36990       -0.32990
