15
gdb 16321	3.25245	2.07265	1.45864	2.1158	62.84	-0.2572	0.0149	0.2721	860.898	0.117766	-399.748145	-399.740689	-399.739744	-399.780079	27.333
C         -0.23440        1.36490       -0.02220
O          0.13570       -0.00800        0.10710
C          0.73580       -0.50830       -1.00880
C         -0.03830       -1.02820       -2.23430
C          0.88870       -1.92700       -1.48420
O          2.25160       -1.66170       -1.92360
C          2.18150       -0.36940       -1.39770
N          3.05880        0.51360       -1.27020
H          0.64650        1.99270       -0.19530
H         -0.94700        1.50410       -0.84600
H         -0.70780        1.64790        0.91940
H         -1.09370       -1.17330       -2.02180
H          0.20820       -0.71940       -3.24530
H          0.68660       -2.88300       -1.02320
H          3.96110        0.20350       -1.63500
