17
gdb 1542	5.60552	1.28111	1.10217	1.2753	66.67	-0.2642	0.0337	0.2979	1077.1921	0.145756	-309.685872	-309.677142	-309.676198	-309.718959	31.07
C         -0.03140        1.57350       -0.02700
C          0.01420        0.04360       -0.00860
C          0.70050       -0.51490        1.24120
C          0.79160       -2.05330        1.23470
O          1.48820       -2.54570        0.09070
C          1.38350       -2.55610        2.47840
C          1.91260       -2.94200        3.48680
H          0.97750        2.00070       -0.00540
H         -0.52970        1.94480       -0.92780
H         -0.57370        1.96710        0.84000
H         -1.00730       -0.35570       -0.06620
H          0.53760       -0.33030       -0.89450
H          1.71710       -0.10820        1.33100
H          0.16320       -0.20340        2.14540
H         -0.22220       -2.46170        1.13340
H          2.42600       -2.37050        0.22840
H          2.36430       -3.29930        4.37920
