15
gdb 6659	6.95694	0.83686	0.76524	4.379	65.09	-0.2501	0.0171	0.2672	1409.2802	0.115495	-399.77244	-399.763124	-399.76218	-399.807993	31.594
N         -0.09970        1.30940       -0.17160
C          0.03870       -0.00040        0.20330
O          1.07490       -0.46820        0.61380
C         -1.27260       -0.79370        0.13720
O         -0.97190       -2.15300       -0.00270
C         -2.12650       -2.96750        0.07770
C         -1.76010       -4.36740       -0.08440
C         -1.49110       -5.52980       -0.21600
H          0.73500        1.87350       -0.18850
H         -0.89080        1.62650       -0.70500
H         -1.82970       -0.59730        1.07080
H         -1.90590       -0.43410       -0.69340
H         -2.63040       -2.82330        1.04910
H         -2.85640       -2.68420       -0.70070
H         -1.24100       -6.55550       -0.33110
