18
gdb 7501	4.07792	1.26083	1.1593	3.0335	64.59	-0.2461	0.0681	0.3142	1095.6637	0.152263	-422.037578	-422.028927	-422.027983	-422.071145	30.855
C         -0.05870        1.35800       -0.02220
O         -0.07890       -0.05170       -0.06350
C          0.67980       -0.59840       -1.12550
C          0.63750       -2.10920       -0.95770
O          1.10210       -2.47660        0.31360
C         -0.67460       -2.76830       -1.46290
O         -0.00930       -3.21740       -2.66430
C          1.28350       -2.88630       -2.11800
H          0.96460        1.74520        0.09720
H         -0.48930        1.79420       -0.93580
H         -0.65940        1.66830        0.83580
H          0.26770       -0.30360       -2.10290
H          1.72410       -0.24830       -1.07120
H          0.75470       -1.81550        0.92660
H         -0.99070       -3.60420       -0.82630
H         -1.52730       -2.11570       -1.67800
H          1.90380       -2.32340       -2.82590
H          1.83200       -3.76970       -1.76720
