18
gdb 10560	2.84342	1.45961	1.09283	2.0923	69.07	-0.2576	-0.037	0.2206	1129.77	0.151271	-384.93536	-384.926488	-384.925544	-384.969281	31.411
C         -0.01120        1.52210       -0.03900
C          0.21480        0.00980        0.01680
C          0.42690       -0.60370       -1.37570
C          0.68860       -2.09050       -1.32890
C          1.75420       -2.72690       -2.13950
O          1.93560       -2.52500       -0.74960
C         -0.44830       -2.99710       -0.95980
O         -1.60510       -2.66300       -0.93420
H          0.84540        2.03650       -0.48920
H         -0.89670        1.76910       -0.63490
H         -0.15850        1.93670        0.96290
H          1.09050       -0.21450        0.63710
H         -0.64430       -0.47390        0.49420
H         -0.46260       -0.43630       -1.99410
H          1.26920       -0.11040       -1.87360
H          1.66230       -3.76550       -2.45680
H          2.33900       -2.08610       -2.79760
H         -0.11910       -4.02990       -0.70720
