18
gdb 10199	2.94098	1.2035	0.89282	2.0269	71.09	-0.2567	0.056	0.3128	1288.1222	0.150439	-384.884264	-384.874324	-384.87338	-384.919425	34.234
C         -0.01060        1.36200        0.02500
O         -0.01980       -0.04560       -0.01030
C          0.64540       -0.57060       -1.13710
C          0.57230       -2.10500       -1.07540
C         -0.88270       -2.59580       -1.12670
O         -0.87840       -3.98790       -0.86600
C          1.38280       -2.68260       -2.14390
C          2.05150       -3.11240       -3.04520
H          1.01490        1.76180        0.06040
H         -0.51720        1.79590       -0.85150
H         -0.54150        1.66980        0.92900
H          0.18190       -0.20820       -2.07030
H          1.69970       -0.25410       -1.15200
H          0.97990       -2.41720       -0.10530
H         -1.45620       -2.04060       -0.37340
H         -1.30360       -2.36950       -2.11900
H         -1.78690       -4.30080       -0.89520
H          2.64270       -3.51580       -3.82940
