19
gdb 3100	3.76399	1.89874	1.60646	1.2562	67.5	-0.2439	0.0618	0.3056	879.543	0.170293	-310.906869	-310.898251	-310.897306	-310.93973	31.08
C         -0.27290        1.46330       -0.08790
C          0.12790       -0.00520        0.10490
C          0.76980       -0.59320       -1.13600
C          0.92030       -2.09160       -1.35560
C          0.45710       -3.11760       -0.34260
C         -0.06510       -1.30900       -2.18100
O         -1.42070       -1.55880       -1.92870
H          0.59510        2.08180       -0.34180
H         -0.99990        1.57430       -0.90080
H         -0.72300        1.87660        0.82020
H          0.82290       -0.08290        0.95070
H         -0.75620       -0.58880        0.37670
H          1.58240        0.01340       -1.53230
H          1.82460       -2.38030       -1.88560
H         -0.53470       -2.88320        0.04660
H          0.39980       -4.10930       -0.80400
H          1.15370       -3.18340        0.50030
H          0.16920       -1.14050       -3.23220
H         -1.90140       -0.73210       -2.04070
