12
gdb 14658	25.41956	0.54905	0.53925	2.0963	98.18	-0.2347	-0.0551	0.1796	1903.8054	0.081251	-344.118376	-344.109747	-344.108803	-344.15186	29.452
O          0.01200        1.45900        0.00980
C          0.00530        0.03920        0.00240
C         -1.36620       -0.44530        0.01280
C         -2.49670       -0.88260        0.02110
C         -3.75820       -1.36620        0.03050
C         -4.89600       -1.80200        0.03900
C         -6.15890       -2.28690        0.04860
C         -7.28820       -2.72030        0.05740
H          0.93230        1.74230        0.00260
H          0.51390       -0.36350       -0.88950
H          0.53070       -0.37280        0.88020
H         -8.27960       -3.10050        0.06510
