19
gdb 16494	2.85445	2.52002	1.74243	1.762	74.49	-0.2169	0.0925	0.3094	841.0501	0.165926	-327.857177	-327.849787	-327.848842	-327.888237	29.263
C         -0.08110        1.58730       -0.08250
C          0.08720        0.08170        0.03890
N          1.09460       -0.62360       -0.86820
C          2.41230        0.01450       -0.46980
C          2.26320       -0.60620        0.90650
C          1.31670       -1.60800        0.30450
C          0.75100       -0.58220        1.24050
C          0.22770       -0.74680        2.63670
H          0.79420        2.14200        0.26440
H         -0.27550        1.86340       -1.12480
H         -0.93750        1.91650        0.51570
H         -0.87500       -0.40620       -0.15880
H          3.21160       -0.45390       -1.05090
H          2.46780        1.10060       -0.59240
H          3.00000       -0.76490        1.68500
H          1.28380       -2.68660        0.24050
H          0.83880       -1.45100        3.21140
H          0.22680        0.20590        3.17890
H         -0.79960       -1.12890        2.63080
