15
gdb 20958	7.54982	1.20031	1.04923	2.8188	63.13	-0.2327	0.0143	0.2469	1094.3149	0.120644	-396.004563	-395.997173	-395.996228	-396.036803	26.257
C         -0.07910        1.46690        0.01130
C         -0.00570       -0.04760        0.00320
O         -1.35210       -0.54510        0.01140
C         -1.48570       -1.86960        0.00630
N         -0.46980       -2.72310       -0.00580
N         -1.13050       -3.91770       -0.00620
C         -2.45920       -3.71540        0.00540
N         -2.72970       -2.42480        0.01360
H          0.93060        1.88810        0.00520
H         -0.61370        1.83410       -0.86900
H         -0.59920        1.82530        0.90390
H          0.51180       -0.42620       -0.88610
H          0.52590       -0.43500        0.88030
H         -0.60870       -4.77740       -0.01430
H         -3.18100       -4.51860        0.00740
