19
gdb 9308	3.14657	1.20713	0.90967	2.6034	71.36	-0.2451	0.0209	0.266	1278.5617	0.163347	-402.201889	-402.19209	-402.191146	-402.237629	33.751
C         -0.09690        1.42650        0.24880
O         -0.06910        0.03250       -0.05170
C         -1.22920       -0.64180        0.09660
C         -1.05410       -2.09910       -0.24690
N         -2.28500       -0.05350        0.47850
C         -3.52440       -0.80040        0.63490
C         -4.49830        0.06530        1.43710
O         -4.66310        1.33060        0.83370
H          0.92430        1.78040        0.10100
H         -0.78320        1.95580       -0.41890
H         -0.41730        1.59680        1.28050
H         -0.03560       -2.29260       -0.58300
H         -1.26590       -2.72550        0.62550
H         -1.75620       -2.39140       -1.03380
H         -3.96580       -1.00540       -0.35170
H         -3.38210       -1.76770        1.14000
H         -5.48400       -0.41070        1.47940
H         -4.12520        0.15860        2.47090
H         -3.76380        1.61380        0.61900
