15
gdb 14830	4.00838	1.41252	1.17302	1.9211	65.3	-0.257	-0.0382	0.2189	1023.5564	0.117373	-399.796968	-399.788781	-399.787836	-399.830519	27.606
C         -0.02340        1.47340        0.14370
N          0.25360        0.05500       -0.04460
C          0.58270       -0.64170        0.93660
O          0.74810       -0.33200        2.27370
C          1.11140       -1.71420        2.59610
C          0.92360       -2.11700        1.12550
C         -0.21920       -3.05650        0.80400
O         -0.86350       -3.64350        1.63370
H          0.66450        2.05620       -0.47820
H         -1.03650        1.68730       -0.21260
H          0.06560        1.81250        1.18190
H          2.12890       -1.76790        2.98740
H          0.39600       -2.16280        3.28660
H          1.82040       -2.42470        0.57990
H         -0.43600       -3.15130       -0.28030
