16
gdb 19762	3.2063	2.98124	2.48393	1.3462	66.9	-0.2248	0.0152	0.24	663.2166	0.134368	-346.605677	-346.600396	-346.599452	-346.634588	23.065
C         -0.00550        1.56940        0.00890
C          1.48100        1.86510        0.01620
C          2.10450        0.63460        0.58860
O          1.11770       -0.31350        0.86610
C          0.02400        0.01760       -0.03490
C          0.41880       -0.43040       -1.41640
C          1.59230        0.05860       -1.83570
C          2.31290        0.94510       -0.90410
H         -0.46130        1.92590        0.93810
H         -0.54850        1.98560       -0.84290
H          1.84850        2.86230        0.22000
H          2.93860        0.59570        1.27660
H         -0.87180       -0.46610        0.35290
H         -0.19210       -1.11900       -1.98730
H          2.04140       -0.20360       -2.78800
H          3.28850        1.31900       -1.19150
