15
gdb 11431	4.04965	1.63781	1.30724	3.6798	59.17	-0.2561	0.0546	0.3108	933.4147	0.119324	-436.951039	-436.943569	-436.942625	-436.983419	26.394
C         -0.16680        1.36790       -0.17510
O         -0.16320       -0.05450       -0.16520
C          0.71130       -0.62310       -1.07620
C          0.61110       -2.14690       -0.97560
O         -0.24290       -2.49970       -2.06400
C         -0.35730       -1.44030       -2.91350
N         -0.97290       -1.40370       -4.00680
O          0.32330       -0.36890       -2.42610
H          0.83830        1.76520        0.02800
H         -0.51800        1.75780       -1.13610
H         -0.84500        1.68470        0.61860
H          1.72490       -0.21750       -0.96230
H          1.58370       -2.63470       -1.09600
H          0.14770       -2.45100       -0.03640
H         -1.37940       -2.31380       -4.21000
