11
gdb 23873	3.04852	1.74823	1.41129	1.7209	45.21	-0.2895	0.013	0.3025	841.7778	0.066377	-528.863071	-528.85523	-528.854286	-528.89565	27.695
O         -0.03720        1.43800        0.00970
C          0.02960        0.02970       -0.02940
C          0.68150       -0.48450       -1.23410
C          1.22840       -0.86350       -2.23330
C          0.73190       -0.49410        1.23870
F          0.05620       -0.12970        2.32960
F          0.82340       -1.82650        1.22970
F          1.97030        0.01390        1.33080
H          0.85980        1.77490       -0.10410
H         -1.00500       -0.32680        0.02160
H          1.70820       -1.20880       -3.11630
