17
gdb 12388	2.95749	2.19614	1.3528	4.4584	64.97	-0.24	0.012	0.252	908.9233	0.143808	-401.031457	-401.023953	-401.023009	-401.063394	28.035
C          0.10820        1.56730       -0.05090
C          0.08330        0.04060       -0.01140
N          0.69510       -0.52360       -1.21270
C          0.78530       -1.97200       -1.12080
C          1.77870       -2.27950       -0.01760
O          1.43280       -1.64570        1.22590
C          0.75150       -0.47820        1.26960
O          0.61870        0.08040        2.32490
H          1.13380        1.92730       -0.16760
H         -0.48340        1.93290       -0.89660
H         -0.30670        1.97200        0.87270
H         -0.97030       -0.28900        0.10100
H          0.16190       -0.24010       -2.02750
H         -0.18260       -2.46060       -0.90080
H          1.16130       -2.38270       -2.06320
H          1.82560       -3.34950        0.20070
H          2.77560       -1.93040       -0.30850
