17
gdb 16987	3.95244	2.20052	2.08138	0.8284	67.71	-0.2222	0.0383	0.2605	736.2481	0.14447	-363.711312	-363.70542	-363.704476	-363.740836	25.038
C          0.01090        1.60180       -0.26550
O          1.44720        1.48930        0.11230
C          1.04970        0.31360        0.90200
C          1.09740       -1.25620        1.04560
N         -0.45980       -1.09700        1.04420
C         -0.64300       -0.36950        2.33750
C          0.49910        0.67860        2.30620
C         -0.11370        0.06790        0.04550
H         -0.51400        2.30740        0.38300
H         -0.09950        1.88360       -1.31490
H          1.42170       -1.79620        0.15800
H          1.48590       -1.71140        1.96190
H         -1.63890        0.07960        2.35810
H         -0.57190       -1.08290        3.16240
H          1.25670        0.52910        3.07990
H          0.15150        1.71050        2.37340
H          0.14800       -0.44880       -0.87810
