13
gdb 2081	4.88769	2.67785	1.83994	3.6199	50.34	-0.2559	0.006	0.2619	655.8257	0.103073	-381.616196	-381.610192	-381.609248	-381.646271	21.652
O         -0.01010        0.07300        0.49350
C         -0.02230        1.16430       -0.00440
C         -1.32500        1.94510       -0.17720
O         -1.25660        3.10460       -0.97990
C         -0.09370        3.85070       -0.68150
C          1.12470        3.02820       -1.04640
O          1.13580        1.75780       -0.36860
H         -2.05850        1.27180       -0.62540
H         -1.67410        2.18660        0.84080
H         -0.12880        4.76400       -1.28170
H         -0.06810        4.13350        0.38380
H          1.13940        2.84090       -2.12610
H          2.05410        3.52950       -0.76200
