16
gdb 10412	2.65437	1.94632	1.39879	3.3517	64.87	-0.251	0.016	0.267	924.4096	0.130265	-379.89125	-379.883029	-379.882085	-379.924311	28.989
C          0.04290        1.51210       -0.04140
N         -0.02240        0.06600        0.16540
C         -1.34180       -0.51760        0.03060
C         -1.97210       -0.62700       -1.40480
O         -1.70460       -2.03910       -1.44840
C         -1.30390       -2.06840       -0.06930
C         -2.24410        0.02620        1.04800
N         -2.98160        0.44840        1.83100
H          1.08420        1.83170        0.04260
H         -0.34440        1.84900       -1.01730
H         -0.52880        2.01710        0.74250
H          0.60520       -0.40910       -0.47510
H         -3.04370       -0.40450       -1.46200
H         -1.43560       -0.07380       -2.18410
H         -0.30710       -2.49920        0.07830
H         -2.02780       -2.58710        0.56850
