18
gdb 11589	5.85608	0.86875	0.79892	1.6402	68.96	-0.2457	-0.0109	0.2348	1421.5066	0.150926	-384.942098	-384.932931	-384.931987	-384.977762	31.333
C         -0.32660        1.44400       -0.11670
C          0.00380       -0.02720        0.06520
O          0.22520       -0.50360        1.15510
C          0.03970       -0.86960       -1.20370
C          0.26490       -2.36040       -0.94340
C          0.31520       -3.15300       -2.22530
C         -0.28440       -4.48590       -2.35330
O         -0.93090       -3.33840       -2.90810
H          0.34270        1.90530       -0.85110
H         -1.34580        1.55310       -0.50510
H         -0.24480        1.96400        0.83850
H         -0.89530       -0.71580       -1.75820
H          0.82750       -0.45980       -1.85290
H          1.19780       -2.50070       -0.38630
H         -0.53820       -2.74480       -0.30710
H          1.14340       -2.90980       -2.89530
H          0.11330       -5.19530       -3.07790
H         -0.78230       -4.93250       -1.49340
