17
gdb 3010	4.88846	1.63176	1.33121	1.1263	60.39	-0.2646	0.0743	0.3389	911.0631	0.146822	-346.826923	-346.818773	-346.817829	-346.859406	28.783
C          0.12250        1.70070       -0.13960
C          0.02410        0.18060        0.04510
C          0.60600       -0.57670       -1.15120
O         -0.13070       -0.20950       -2.30820
C          0.71900       -0.25640        1.31560
C         -0.00120       -0.45450        2.57850
O          0.42770       -1.57200        1.79780
H          1.16970        2.02470       -0.17390
H         -0.35020        1.99760       -1.07770
H         -0.36560        2.23210        0.68310
H         -1.03220       -0.10570        0.12300
H          1.67450       -0.32310       -1.26240
H          0.53770       -1.65700       -0.95780
H          0.21850       -0.70180       -3.05630
H          1.77820        0.00680        1.37810
H          0.51470       -0.32140        3.52850
H         -1.07830       -0.29370        2.60940
