20
gdb 20026	3.28421	1.44482	1.11873	1.038	76.18	-0.2297	0.0854	0.3151	1123.1869	0.176302	-348.961589	-348.953004	-348.952059	-348.995028	31.774
C         -0.49930        0.97090       -0.13170
O          0.51480        0.00720        0.08080
C          0.92800       -0.60730       -1.09950
C          1.60900       -1.93030       -0.95470
C          0.22520       -1.86040       -1.58120
C         -0.95510       -2.40800       -0.84380
C         -2.31510       -2.45110       -1.49980
C         -1.55760       -3.73170       -1.24490
H         -0.15430        1.77570       -0.79880
H         -1.40280        0.52190       -0.56600
H         -0.74280        1.40160        0.84260
H          1.29990        0.08870       -1.85410
H          2.46850       -2.14950       -1.57820
H          1.66610       -2.32610        0.05390
H          0.18170       -1.99270       -2.66030
H         -0.94610       -2.18930        0.21930
H         -3.18970       -2.23830       -0.89460
H         -2.39300       -2.10650       -2.52620
H         -1.12800       -4.24300       -2.10040
H         -1.91330       -4.39620       -0.46500
