15
gdb 8646	2.5418	1.77797	1.40052	4.9304	67.11	-0.2572	0.0052	0.2624	944.4306	0.117844	-358.796051	-358.787093	-358.786149	-358.829059	32.542
N         -0.08160        1.43690        0.10320
C          0.03950       -0.01210        0.01500
C          0.86030       -0.53710        1.24470
N          0.31780       -0.08300        2.53170
C          0.91340       -2.00060        1.19840
C          0.90410       -3.19910        1.13650
C          2.23670        0.00910        1.10840
N          3.27920        0.47970        0.94700
H          0.76600        1.88890       -0.22570
H         -0.84570        1.76980       -0.47240
H         -0.95640       -0.45810        0.09360
H          0.50520       -0.38700       -0.90780
H         -0.01570        0.86940        2.38490
H         -0.48530       -0.66020        2.76270
H          0.91600       -4.26070        1.09260
