14
gdb 1436	8.78603	1.31135	1.16546	5.6727	58.49	-0.2718	-0.0345	0.2373	976.7854	0.111155	-324.614082	-324.60597	-324.605025	-324.648331	26.819
C         -0.07420        1.53650       -0.10400
C          0.02910        0.02150        0.05320
C          0.78170       -0.40310        1.30390
O          1.24180        0.37400        2.09820
C          0.91720       -1.93130        1.48600
C          1.62550       -2.31750        2.69920
N          2.18330       -2.64580        3.65500
H          0.91790        1.99090       -0.16060
H         -0.62520        1.79030       -1.01320
H         -0.58870        1.98230        0.75060
H         -0.96580       -0.44460        0.08620
H          0.52770       -0.43690       -0.81230
H         -0.08370       -2.38010        1.48520
H          1.43230       -2.34720        0.61120
