16
gdb 18440	3.09535	2.06184	1.60528	3.5232	69.28	-0.2209	0.027	0.2479	841.6176	0.131153	-342.747564	-342.740223	-342.739279	-342.779033	27.39
C         -0.38060        1.44830        0.01030
N          0.07590        0.06780        0.00570
C          1.10420       -0.41010       -0.95880
C          1.83700       -1.10350        0.19600
C          2.28690       -0.07470        1.22100
C          2.81470        1.20810        0.85050
N          3.25270        2.23520        0.54410
C          0.80940       -0.48840        1.11720
H          0.42380        2.19270        0.08980
H         -0.94090        1.64080       -0.91030
H         -1.06730        1.58880        0.85160
H          0.68490       -1.09590       -1.70120
H          1.67420        0.37610       -1.46890
H          2.24910       -2.10310        0.18530
H          2.78150       -0.51380        2.08330
H          0.30530       -0.88140        1.99450
