20
gdb 11754	4.98002	1.32528	1.22713	0.8562	75.46	-0.2392	0.0932	0.3324	1077.5622	0.176172	-348.967048	-348.958608	-348.957663	-348.999702	31.842
C         -0.26510        1.31330        0.00850
O          0.17070       -0.03050        0.11820
C          0.75570       -0.50910       -1.03510
C         -0.05180       -0.97160       -2.21540
C          0.84350       -1.95430       -1.48200
C          2.31880       -1.75980       -1.87640
C          2.75190       -2.08370       -3.30070
C          2.21590       -0.25300       -1.43780
H          0.57240        1.99860       -0.18640
H         -1.00550        1.43070       -0.79530
H         -0.72420        1.58020        0.96300
H         -1.10830       -1.10260       -2.00330
H          0.16850       -0.64540       -3.22930
H          0.42900       -2.83980       -1.01500
H          2.96150       -2.29590       -1.17130
H          2.12800       -1.57220       -4.04090
H          3.78950       -1.77780       -3.47420
H          2.68410       -3.15950       -3.49680
H          2.38290        0.49790       -2.21760
H          2.85310       -0.02550       -0.58020
