16
gdb 3265	3.45271	3.37307	1.85	2.2758	61.91	-0.2388	0.0222	0.2609	696.4438	0.139349	-325.784473	-325.77811	-325.777166	-325.814814	23.752
C         -0.03820        1.50390       -0.10790
C          1.33770        2.15830        0.00140
C          2.26890        1.82550       -1.16910
N          2.65500        0.44550       -1.39900
C          1.91430       -0.57000       -1.32740
O          0.61680       -0.76140       -0.95580
C          0.01050       -0.00380        0.09520
H         -0.70710        1.91020        0.66110
H         -0.49730        1.72860       -1.07930
H          1.23050        3.24900        0.04260
H          1.81250        1.85470        0.94400
H          1.80550        2.19040       -2.09900
H          3.19470        2.40020       -1.05330
H          2.31310       -1.52950       -1.66170
H          0.53580       -0.23070        1.03420
H         -0.99970       -0.41540        0.16700
