18
gdb 17853	4.90797	1.6052	1.52248	1.5136	71.45	-0.2203	0.0755	0.2958	902.0656	0.154725	-347.748563	-347.741569	-347.740625	-347.779901	27.061
C          0.06610        1.31640       -0.27410
C          1.51310        1.52100        0.22300
C          1.32360        0.13120        0.83210
O         -0.01420        0.00900        0.33950
C          2.17330       -1.09370        0.86380
C          3.60550       -0.73970        1.27440
C          3.06130       -0.08850        2.59080
C          1.63280       -0.44710        2.17120
H         -0.68090        2.00300        0.14020
H         -0.06010        1.26010       -1.36120
H          2.27190        1.59200       -0.55870
H          1.65260        2.33300        0.93930
H          1.84790       -1.99480        0.35740
H          4.22150       -1.61870        1.47500
H          4.15470       -0.08410        0.58930
H          3.39180       -0.62570        3.48220
H          3.26710        0.97790        2.73620
H          0.82990       -0.77680        2.82010
