18
gdb 9400	4.24488	0.97929	0.82709	2.0866	65.61	-0.2614	-0.0344	0.2271	1351.3997	0.150341	-422.071196	-422.061572	-422.060628	-422.106763	32.885
C          0.05760        1.32550       -0.27620
C          0.08410       -0.17650        0.00260
O          0.74100       -0.53380        1.20370
C          2.15820       -0.43850        1.18050
C          2.66320       -1.13520        2.43450
O          2.27940       -2.49440        2.46470
C         -1.32170       -0.76220        0.10710
O         -2.26040       -0.38810       -0.54340
H          1.05090        1.70490       -0.52750
H         -0.61640        1.52020       -1.11370
H         -0.31380        1.86320        0.60090
H          0.56360       -0.69770       -0.84800
H          2.55260       -0.94360        0.28480
H          2.48890        0.61030        1.16320
H          3.75750       -1.10590        2.45320
H          2.29600       -0.59040        3.31880
H          1.32800       -2.50140        2.30940
H         -1.39800       -1.59520        0.84050
