22
gdb 14747	10.55396	0.54553	0.52884	0.877	85.67	-0.2573	0.0592	0.3165	2105.7887	0.198067	-313.051537	-313.041211	-313.040266	-313.087405	36.587
C         -0.05420        1.58550        0.07280
C         -0.00780        0.05620        0.01950
C          0.70160       -0.48230       -1.22780
C          0.75250       -2.01240       -1.28920
C          1.46250       -2.54390       -2.53760
C          1.50570       -4.08490       -2.58490
C          2.17940       -4.60340       -3.76920
C          2.73940       -5.00440       -4.75450
H          0.95510        2.01220        0.07380
H         -0.58370        1.99580       -0.79440
H         -0.56600        1.93980        0.97310
H          0.49710       -0.32740        0.91610
H         -1.03000       -0.34360        0.05460
H          0.19710       -0.09910       -2.12580
H          1.72470       -0.08270       -1.26400
H          1.25770       -2.39590       -0.39150
H         -0.27070       -2.41220       -1.25370
H          0.96020       -2.17510       -3.43980
H          2.48830       -2.15880       -2.57770
H          2.00810       -4.46320       -1.68460
H          0.48150       -4.47950       -2.54580
H          3.23200       -5.36990       -5.62090
