15
gdb 4075	6.53674	1.15675	1.06942	1.4141	65.76	-0.2493	-0.0037	0.2455	1070.6616	0.116976	-399.718923	-399.711438	-399.710494	-399.750969	27.985
O         -0.23960        1.30350        0.44980
N         -0.04810       -0.08580        0.33070
C         -1.08290       -0.64410       -0.13570
C         -2.47320       -0.18970       -0.55020
C         -2.82270       -1.68480       -0.67520
C         -4.06620       -2.38090       -0.35130
O         -3.61760       -2.22430       -1.70810
C         -1.36400       -2.11170       -0.40680
H          0.60290        1.59390        0.81620
H         -3.02430        0.39820        0.18880
H         -2.49460        0.34160       -1.50780
H         -4.03300       -3.39850        0.03590
H         -4.95450       -1.80940       -0.08540
H         -0.86770       -2.49940       -1.30290
H         -1.19200       -2.80440        0.42130
