15
gdb 11321	6.12168	1.29245	1.08902	1.2025	64.75	-0.2493	-0.0409	0.2084	1045.5923	0.117532	-399.830251	-399.822252	-399.821308	-399.864361	27.452
C          0.20820        1.44880        0.09960
N          0.22510       -0.00550        0.07830
C          0.44670       -0.61900       -0.99430
C          0.48840       -2.12020       -1.14930
C          0.73430       -2.34180       -2.63220
O          0.81790       -3.38250       -3.22460
C          0.86120       -0.95240       -3.26130
O          0.69110       -0.00940       -2.21120
H          1.08660        1.81000        0.64750
H          0.20050        1.91640       -0.89070
H         -0.67220        1.78200        0.65860
H          1.29230       -2.56650       -0.55540
H         -0.44390       -2.59320       -0.82880
H          1.84610       -0.82700       -3.72610
H          0.09490       -0.80700       -4.03200
