15
gdb 12337	3.21896	2.24874	1.40091	3.2855	63.5	-0.2599	-0.004	0.2559	849.3047	0.119798	-399.809232	-399.802213	-399.801269	-399.840621	26.654
O          0.44980        0.87690        0.70220
C         -0.05940       -0.21240       -0.01450
C         -1.53160       -0.06590       -0.30730
C         -2.06900       -0.79290       -1.28000
C         -1.19220       -1.70690       -2.08480
O          0.15050       -1.20560       -2.25880
C          0.69430       -0.40280       -1.32420
N          1.79770        0.20030       -1.47750
H          1.28070        1.10560        0.25170
H          0.08160       -1.14610        0.56660
H         -2.09210        0.62700        0.31000
H         -3.12560       -0.76260       -1.52320
H         -1.12560       -2.70360       -1.62410
H         -1.57460       -1.84220       -3.09990
H          2.21050        0.02100       -2.39180
