20
gdb 12813	3.28572	1.96094	1.56199	1.3162	74.38	-0.2433	0.0864	0.3297	909.0664	0.179053	-349.003773	-348.996324	-348.99538	-349.03499	29.677
C         -0.03930        1.53000        0.01180
C         -0.00630        0.01710        0.02770
C         -0.85890       -0.72560        1.02180
C          0.64630       -0.70370        1.19330
C          1.44630       -1.98250        0.95210
C          1.63560       -2.25930       -0.54380
O          0.44960       -2.00560       -1.28040
C          0.17390       -0.61860       -1.34220
H          0.88730        1.94660       -0.40110
H         -0.87130        1.90400       -0.59790
H         -0.16430        1.93300        1.02160
H         -1.46700       -0.14860        1.71090
H         -1.29930       -1.66440        0.70080
H          1.01860       -0.06900        1.99230
H          2.43280       -1.90550        1.42310
H          0.93990       -2.83310        1.42300
H          2.45380       -1.63660       -0.94340
H          1.89390       -3.30710       -0.72270
H         -0.73810       -0.51410       -1.94120
H          0.98920       -0.10050       -1.87930
