12
gdb 2259	4.15409	3.11046	2.11522	2.2974	51.78	-0.2623	0.0144	0.2767	608.5618	0.089574	-360.469291	-360.463236	-360.462292	-360.498908	22.847
O         -0.08880        1.45630        0.05240
C          0.00140        0.09000        0.06760
C         -0.24410       -0.79940       -1.16260
C         -1.08670       -0.94940        0.06060
O         -0.36180       -1.75680        1.03030
C          0.61460       -0.76290        1.14320
N          1.59080       -0.65470        1.91710
H          0.72690        1.81180       -0.31860
H         -0.70760       -0.25310       -1.97910
H          0.44620       -1.58810       -1.44520
H         -2.16120       -0.89090        0.15700
H          1.65940       -1.45320        2.55010
