15
gdb 10378	2.80177	1.94916	1.42726	3.0486	66.03	-0.2764	-0.0508	0.2255	891.3852	0.118271	-362.674291	-362.666538	-362.665593	-362.706732	27.595
O         -0.13400        0.07490       -0.44440
C         -0.00090        1.15310        0.06760
C          1.30860        1.94130        0.04940
C          2.50530        1.13290       -0.54240
C          2.23090        1.77100       -1.92910
C          1.34360        2.84560       -1.25160
C          1.49580        2.63070        1.31450
N          1.63920        3.17970        2.32230
H         -0.84590        1.68160        0.55700
H          3.45350        1.44790       -0.10470
H          2.39730        0.05140       -0.46210
H          3.09580        2.14030       -2.48130
H          1.65440        1.10670       -2.57510
H          0.37420        3.07460       -1.70020
H          1.87100        3.77970       -1.05160
