11
gdb 5202	8.28013	1.22834	1.07759	3.7903	54.09	-0.2526	-0.0202	0.2323	978.7762	0.072552	-434.577111	-434.570621	-434.569677	-434.608798	22.196
O         -0.01660       -0.01220        0.11430
C         -0.02260        1.16820       -0.03250
O          1.08890        1.91740        0.26460
C          1.02490        3.26770        0.12950
C          2.07450        4.10290       -0.06430
O          1.56310        5.37460       -0.09090
C          0.23900        5.21800        0.08080
N         -0.14730        3.98920        0.22340
H         -0.85850        1.77910       -0.39920
H          3.13550        3.98570       -0.18340
H         -0.36560        6.11070        0.09020
