15
gdb 5650	5.04105	2.10001	1.49606	1.4583	75.08	-0.1762	0.0035	0.1797	803.2093	0.122356	-325.56848	-325.562523	-325.561579	-325.598141	24.412
C         -0.05390        1.52280        0.01070
C          1.42670        1.88270       -0.00150
C          2.19690        0.77300       -0.01480
C          1.30840       -0.37360       -0.01240
C         -0.01640        0.01970        0.00240
C         -0.81190       -1.15150        0.00370
C          0.06480       -2.22220       -0.01030
N          1.35990       -1.73890       -0.02010
H         -0.55410        1.94070        0.89500
H         -0.57090        1.95000       -0.85930
H          1.78420        2.90390        0.00050
H          3.27920        0.74380       -0.02530
H         -1.88860       -1.23200        0.01360
H         -0.12420       -3.28380       -0.01420
H          2.18680       -2.30950       -0.03110
