20
gdb 9380	5.42522	0.77761	0.70817	1.3229	78.12	-0.2638	0.0339	0.2977	1614.2712	0.174102	-348.974399	-348.964301	-348.963357	-349.009772	35.952
C         -0.02040        1.58300        0.06940
C         -0.01220        0.05310        0.00550
C          0.70190       -0.49060       -1.23630
C          0.71070       -2.02000       -1.30450
C          1.47840       -2.55810       -2.52780
O          2.83190       -2.10650       -2.55470
C          1.40170       -4.02060       -2.60210
C          1.36340       -5.22230       -2.61620
H          0.99930        1.98330        0.08290
H         -0.53100        2.01260       -0.79970
H         -0.53210        1.94320        0.96740
H          0.47170       -0.34860        0.90590
H         -1.04460       -0.32060        0.02600
H          0.21750       -0.09090       -2.13850
H          1.73600       -0.12880       -1.26150
H          1.16810       -2.43940       -0.39810
H         -0.31420       -2.40920       -1.34100
H          1.03070       -2.13240       -3.43500
H          3.31340       -2.60330       -1.88360
H          1.32540       -6.28320       -2.65100
