19
gdb 4070	5.21008	1.00949	0.90983	0.6798	75.47	-0.239	0.0163	0.2553	1289.3681	0.163655	-365.01517	-365.005973	-365.005029	-365.050046	32.984
C         -0.10260        1.46200        0.14470
C          0.05830       -0.02220       -0.04290
C          0.11280       -0.92250        1.16860
C          1.32640       -0.67210        2.05000
C          1.28920        0.34570        3.16430
C          1.32350       -1.12780        3.48640
N          0.16790       -0.61350       -1.17190
O          0.13990        0.27920       -2.25810
H         -0.46200        1.93450       -0.76900
H         -0.79740        1.67070        0.96390
H          0.85580        1.92120        0.41280
H         -0.79680       -0.77660        1.76850
H          0.11170       -1.95960        0.81910
H          2.27370       -0.76680        1.52550
H          2.17740        0.93750        3.35630
H          0.35880        0.87680        3.33660
H          0.41600       -1.58290        3.87020
H          2.23570       -1.54640        3.89650
H          0.18140       -0.32250       -3.00820
