15
gdb 5205	8.54009	1.00215	0.90195	1.8027	83.88	-0.1908	0.0092	0.2	1258.1149	0.119888	-325.548693	-325.540835	-325.539891	-325.583067	27.834
C         -0.08190        1.46380        0.01100
C         -0.00910        0.01160        0.00290
C          0.06320       -1.19420       -0.00380
C          0.13390       -2.60140       -0.01180
C          1.21870       -3.46670       -0.02270
C          0.71680       -4.79070       -0.02690
C         -0.65990       -4.71080       -0.01850
N         -1.00280       -3.38870       -0.00930
H          0.92140        1.90410        0.00370
H         -0.61530        1.84690       -0.86680
H         -0.59860        1.83790        0.90260
H          2.25260       -3.15960       -0.02710
H          1.29590       -5.70100       -0.03510
H         -1.41480       -5.48060       -0.01820
H         -1.93830       -3.02120       -0.00190
