15
gdb 9221	7.56052	0.84267	0.80344	3.1613	60.21	-0.2525	-0.0327	0.2199	1370.9225	0.116484	-436.981195	-436.972025	-436.971081	-437.016707	29.84
C          0.31670        1.31530        0.17770
O         -0.07750       -0.02890       -0.11530
C          0.55230       -0.58340       -1.17680
O          1.38410       -0.02650       -1.85750
N          0.11000       -1.86320       -1.35810
C          0.56040       -2.67550       -2.46160
C          1.37770       -3.87810       -2.00800
O          1.39520       -4.93420       -2.58090
H          1.38300        1.36490        0.41220
H          0.11150        1.97370       -0.66990
H         -0.27640        1.61330        1.04260
H         -0.62570       -2.19030       -0.75380
H         -0.26530       -3.02200       -3.09230
H          1.21310       -2.03920       -3.07210
H          1.97570       -3.69100       -1.08650
