17
gdb 8197	2.69848	2.6488	1.73675	1.6802	67.76	-0.2399	0.02	0.2599	816.0921	0.141964	-363.873151	-363.865667	-363.864723	-363.904341	28.801
C         -0.08400        1.52570       -0.10360
C          0.00710        0.03780        0.05410
C          1.23360       -0.78300       -0.24160
C          0.65300       -0.78900        1.16410
C          1.42190       -0.27550        2.35150
N         -0.27650       -1.87790        1.41710
C         -1.24380       -1.70580        0.61040
O         -1.22920       -0.63190       -0.21800
H          0.86040        1.99470        0.18510
H         -0.29010        1.79790       -1.14410
H         -0.88050        1.93830        0.52330
H          1.14150       -1.67960       -0.84600
H          2.15220       -0.22240       -0.38250
H          2.03930        0.58560        2.07950
H          0.74480        0.02590        3.15680
H          2.08230       -1.05640        2.74170
H         -2.11360       -2.34400        0.51220
