7
gdb 109	21.0592	2.92609	2.61064	3.6958	36.12	-0.3494	-0.0151	0.3344	429.0927	0.044642	-224.94466	-224.939832	-224.938888	-224.972334	15.259
N         -0.05890       -1.17090       -0.00370
C         -0.01280       -0.01810        0.00220
C          0.01200        1.44720        0.00970
C          1.37090        1.99600       -0.00030
N          2.43020        2.45290       -0.00800
H         -0.53420        1.82140       -0.86410
H         -0.51740        1.81200        0.89770
