17
gdb 19263	3.43547	1.77914	1.3457	3.7753	67.73	-0.244	-0.0117	0.2323	945.7127	0.142161	-363.846682	-363.839032	-363.838088	-363.87879	28.337
C         -0.13500        1.53690        0.01700
C          0.08890        0.02370        0.12150
C          0.68730       -0.55770       -1.15880
C          0.84900       -2.06780       -1.36510
C         -0.44090       -2.74910       -1.53840
N          0.12780       -2.02530       -2.71890
C         -0.14980       -0.61940       -2.45380
O         -0.76740        0.15880       -3.11140
H          0.81250        2.06570       -0.13380
H         -0.78650        1.77640       -0.82800
H         -0.59460        1.92830        0.92920
H          0.76100       -0.20220        0.95880
H         -0.86100       -0.47460        0.34690
H          1.62680       -0.04290       -1.39720
H          1.78400       -2.60850       -1.28150
H         -0.44080       -3.82470       -1.68100
H         -1.34290       -2.35720       -1.07620
