16
gdb 14643	4.27599	0.83588	0.72694	4.6336	74.13	-0.2516	0.0154	0.267	1509.0758	0.129389	-342.759208	-342.749783	-342.748839	-342.795558	31.158
C         -0.37010        1.00250        0.61340
C         -0.10280       -0.35510        0.15980
C          0.13730       -1.47330       -0.22040
C          0.36720       -2.84560       -0.68860
N         -0.83670       -3.67760       -0.81870
C         -1.55140       -3.83450        0.44670
C         -2.76570       -4.63220        0.26360
N         -3.73670       -5.24100        0.12060
H          0.34310        1.71070        0.17800
H         -1.37580        1.32650        0.32440
H         -0.29510        1.08240        1.70330
H          0.85860       -2.82940       -1.66780
H          1.05830       -3.36070       -0.00870
H         -1.46070       -3.25470       -1.49930
H         -0.89680       -4.35830        1.15490
H         -1.83270       -2.87980        0.92230
