14
gdb 15966	3.1877	1.92646	1.36646	3.7364	62.03	-0.2628	0.0048	0.2676	876.954	0.107537	-378.67762	-378.670543	-378.669598	-378.709194	25.854
N         -0.29940       -0.98660       -0.68830
C         -0.15820        0.09730       -0.31290
C          0.04760        1.47550        0.12990
N          0.14550        1.66650        1.59860
C          1.31940        2.57160        1.45850
C          1.46920        2.07380        0.02080
C          2.62380        1.59620       -0.72980
O          1.93150        2.81820       -1.06790
H         -0.67870        2.12510       -0.37780
H         -0.67730        2.08130        2.01970
H          1.08690        3.64410        1.49040
H          2.13320        2.35620        2.15690
H          3.62320        1.72890       -0.32020
H          2.50320        0.78260       -1.44190
