19
gdb 11745	5.09381	1.27055	1.19259	2.9338	72.46	-0.2235	0.0641	0.2876	1077.3216	0.165223	-365.013466	-365.00511	-365.004166	-365.046159	31.331
C         -0.06550        1.57310        0.11710
C          0.03930        0.05770        0.03160
C          1.06230       -0.57580       -0.98660
C          1.73060       -1.30240        0.18880
C          2.34680       -2.66020        0.19410
O          3.61780       -2.59100       -0.44120
N          2.19780       -0.22730        1.09910
C          0.78700       -0.67800        1.15870
H          0.91740        2.00890        0.31470
H         -0.44850        1.99420       -0.81900
H         -0.74440        1.87850        0.92140
H         -0.94880       -0.39070       -0.11360
H          0.58460       -1.25040       -1.70120
H          1.71060        0.12380       -1.51880
H          2.43800       -3.01170        1.23670
H          1.68090       -3.36410       -0.33060
H          3.94880       -3.48830       -0.54480
H          2.69450       -0.67720        1.86820
H          0.37470       -1.07400        2.08060
