18
gdb 13882	3.99628	1.53577	1.18801	0.8953	69.75	-0.2285	0.0171	0.2457	1022.281	0.152926	-384.941632	-384.933366	-384.932421	-384.974466	30.465
C         -0.02140        1.52040       -0.06800
C         -0.02980       -0.00200        0.01280
O          0.77740       -0.48980        1.08130
C         -1.45750       -0.56930        0.14800
O         -2.27670       -0.11830       -0.93380
C         -2.87690       -1.22780       -1.60090
C         -2.32180       -2.44290       -0.91280
C         -1.52500       -2.07030        0.08150
H          1.00040        1.89170       -0.18490
H         -0.62820        1.86080       -0.91030
H         -0.44470        1.95710        0.84660
H          0.41290       -0.42370       -0.89700
H          0.52910       -0.00700        1.87760
H         -1.87450       -0.19070        1.10110
H         -3.97450       -1.16530       -1.52240
H         -2.62800       -1.19400       -2.67260
H         -2.56290       -3.45470       -1.21310
H         -0.97190       -2.70460        0.75990
