14
gdb 5209	8.85876	1.02587	0.92471	3.6418	78.95	-0.2091	-0.0057	0.2034	1218.7797	0.108444	-341.605306	-341.597692	-341.596748	-341.639199	26.481
C         -0.05710        1.44510        0.01020
C         -0.00140       -0.00740        0.00240
C          0.06140       -1.21200       -0.00420
C          0.11500       -2.62390       -0.01180
N          1.19760       -3.38760       -0.02300
C          0.73950       -4.67710       -0.02650
C         -0.63330       -4.70970       -0.01750
N         -1.02210       -3.39500       -0.00810
H          0.95180        1.87130        0.00470
H         -0.58580        1.83040       -0.86890
H         -0.57230        1.82140        0.90130
H          1.42110       -5.51410       -0.03540
H         -1.34610       -5.51730       -0.01680
H         -1.96490       -3.04380        0.00000
