13
gdb 3121	6.04295	2.211	1.90681	4.5343	59.04	-0.2626	-0.0035	0.2591	671.8379	0.103247	-303.463214	-303.457301	-303.456357	-303.492835	22.067
N          0.10650       -1.14340        0.00800
C          0.04640        0.01200       -0.00940
C         -0.07450        1.43840       -0.01740
C          0.28140        2.27210       -1.19320
N          1.13180        2.38600       -0.00550
C          0.36500        3.25620        0.96190
C         -0.82160        2.26150        1.03650
H          0.77210        1.77380       -2.02270
H         -0.37360        3.09740       -1.46730
H          0.92120        3.34940        1.89500
H          0.15660        4.25360        0.56370
H         -1.81620        2.61140        0.74990
H         -0.88450        1.75330        1.99900
