18
gdb 8452	4.35716	1.70893	1.51748	1.7573	73.05	-0.2219	0.0124	0.2342	915.039	0.153048	-347.772057	-347.764515	-347.763571	-347.803351	29.489
C         -0.01970        1.46850        0.07560
C         -0.00450       -0.01630       -0.00890
C         -0.06310       -0.87440       -1.03050
C          0.00430       -2.24340       -0.31610
C          0.16150       -3.51610       -1.09810
C         -1.02940       -2.02280        0.83870
C          0.09100       -1.00310        1.18150
O          1.05840       -1.98120        0.68710
H          0.89000        1.84850        0.55800
H         -0.09480        1.92640       -0.91470
H         -0.86410        1.82710        0.67860
H         -0.13760       -0.70070       -2.09500
H          1.07630       -3.48600       -1.69850
H          0.21670       -4.37930       -0.42960
H         -0.68760       -3.65400       -1.77550
H         -2.02600       -1.65190        0.58860
H         -1.06420       -2.86340        1.53730
H          0.29350       -0.62840        2.18490
