18
gdb 18611	2.78348	2.25036	1.76882	1.7873	71.65	-0.2305	0.0061	0.2366	835.5473	0.154944	-347.79449	-347.787112	-347.786168	-347.825595	29.19
C         -0.08190        1.58940       -0.09880
C          0.05730        0.08740        0.03760
C          1.34150       -0.69190       -0.21170
C          2.62200        0.07260       -0.09890
C          2.82950        0.51340        1.14270
C          1.72910        0.07150        2.09720
O          1.19490        1.11710        2.90240
C          0.73200       -0.64840        1.17880
H          0.85070        2.11620        0.12000
H         -0.36900        1.85530       -1.12230
H         -0.86380        1.97410        0.56630
H         -0.82450       -0.44310       -0.31600
H          1.29980       -1.57740       -0.83670
H          3.26660        0.26100       -0.95090
H          3.65180        1.13580        1.47740
H          2.12680       -0.64090        2.83140
H          0.81860        1.77640        2.31120
H          0.21080       -1.50640        1.58630
