14
gdb 17016	5.87188	1.43446	1.37595	1.5469	62.99	-0.2532	-0.0426	0.2107	880.9697	0.10676	-382.505828	-382.499118	-382.498174	-382.536977	24.774
O         -0.67810        0.81550        0.57490
C          0.10160        1.07110       -0.30780
C          1.29430        1.98500       -0.19790
C          1.09270        3.51270       -0.59020
C          0.36450        3.67990        0.78510
C          1.58370        2.74970        1.13840
C          2.37850        3.71030        0.23790
O          3.41000        4.30180        0.19940
H         -0.00580        0.60950       -1.31610
H          2.14950        1.50800       -0.69000
H          0.81340        3.91280       -1.56210
H          0.36600        4.68070        1.21910
H         -0.60740        3.20010        0.86800
H          1.83750        2.31430        2.10100
