17
gdb 3368	4.00294	2.60431	2.59233	1.5097	63.28	-0.2432	0.0839	0.327	657.5244	0.150344	-309.711438	-309.705034	-309.70409	-309.741359	24.648
C         -0.17050        1.55530       -0.03850
C          0.02900        0.05490        0.04070
C          1.34460       -0.64840       -0.21100
C          2.62530        0.15490       -0.08370
O          2.53980        0.86100        1.15290
C          1.68740        0.14260        2.04290
C          0.73320       -0.65650        1.17510
H          0.69210        2.10300        0.34500
H         -0.33840        1.86700       -1.07550
H         -1.05080        1.85770        0.53980
H         -0.82240       -0.50710       -0.33810
H          1.36470       -1.53840       -0.83000
H          3.49290       -0.52470       -0.09320
H          2.77310        0.90400       -0.87000
H          2.26830       -0.54080        2.68330
H          1.20320        0.88330        2.68940
H          0.29350       -1.55250        1.59870
