13
gdb 2511	3.46009	2.16016	1.39685	1.0679	61.13	-0.2613	0.0259	0.2872	825.2619	0.098959	-307.23788	-307.230076	-307.229131	-307.26963	28.086
O          0.08350        1.39120       -0.01350
C          0.05160       -0.01250        0.03550
C         -1.41080       -0.55910        0.01350
C         -2.08990       -0.08970       -1.19810
C         -2.59060        0.34780       -2.19950
C         -1.42160       -2.01690        0.13170
C         -1.38020       -3.21190        0.24250
H         -0.34270        1.66010       -0.83650
H          0.60830       -0.47720       -0.79030
H          0.51870       -0.31210        0.97690
H         -1.92050       -0.12350        0.88410
H         -3.06260        0.70890       -3.08000
H         -1.36040       -4.26930        0.33900
