17
gdb 15693	2.975	2.02164	1.41717	2.0209	65.98	-0.2518	0.0173	0.2691	912.8528	0.143119	-401.007847	-401.000059	-400.999115	-401.040193	28.225
C         -0.40900        1.05900        0.10040
O          0.13190       -0.24640       -0.02120
C          0.87020       -0.45850       -1.21350
C          1.52130       -1.83680       -1.11690
C          0.39160       -2.75090       -1.60650
O         -0.33250       -1.96570       -2.57460
C         -0.07260       -0.63940       -2.39990
N         -0.56170        0.29570       -3.09600
H          0.38890        1.81690        0.11090
H         -1.09980        1.29470       -0.71670
H         -0.94100        1.08790        1.05410
H          1.57220        0.36500       -1.39020
H          2.37910       -1.89270       -1.79340
H          1.84990       -2.06000       -0.10100
H          0.73610       -3.65880       -2.10610
H         -0.29000       -3.02330       -0.79390
H         -1.20100       -0.07920       -3.80070
