16
gdb 18892	4.4705	2.39785	2.04566	1.1402	65.77	-0.2297	0.0874	0.3172	711.5714	0.131611	-346.550837	-346.544938	-346.543993	-346.580387	24.667
C         -0.07510        1.43630        0.02380
C          0.00290       -0.05940        0.01550
O         -1.15450       -0.71040       -0.44780
C         -0.78580       -2.05320       -0.33990
C          0.69480       -2.26110       -0.59330
C          0.14480       -2.29770        0.83230
C          0.70260       -0.88450        1.08440
C          1.25320       -0.84790       -0.34220
H          0.86080        1.86250        0.39510
H         -0.25140        1.82130       -0.98530
H         -0.88890        1.77900        0.67010
H         -1.54500       -2.75780       -0.65090
H          1.12110       -3.04050       -1.20910
H          0.06070       -3.11100        1.53920
H          1.10430       -0.48840        2.00700
H          2.16340       -0.41810       -0.73720
