15
gdb 20575	4.61789	1.53712	1.22184	3.3695	62.48	-0.2651	-0.0171	0.248	956.6752	0.118593	-399.7934	-399.785816	-399.784871	-399.825741	27.424
C          0.04040        1.44260       -0.40480
C          0.01380        0.05710        0.24490
O          0.42420        0.18890        1.59020
C         -1.34250       -0.59370        0.13710
N         -1.92980       -1.02700        1.22580
O         -3.12970       -1.59940        0.82330
C         -3.22580       -1.48830       -0.50930
C         -2.13420       -0.86600       -1.01820
H          1.03500        1.87760       -0.27910
H         -0.18070        1.38440       -1.47490
H         -0.69000        2.09930        0.07550
H          0.72320       -0.59130       -0.29950
H         -0.10790       -0.41390        2.12410
H         -4.12360       -1.89420       -0.94950
H         -1.92140       -0.63520       -2.04840
