15
gdb 1770	4.59326	1.99653	1.77874	4.8527	62.57	-0.2531	0.0254	0.2784	765.3034	0.123825	-304.682331	-304.674697	-304.673753	-304.71368	27.271
C         -0.20750        1.44750       -0.06710
N          0.04340        0.01720        0.04090
C          1.38340       -0.48190       -0.19090
C          0.79300       -0.50820        1.19200
C          1.36020        0.37900        2.28890
C          0.26700       -1.76960        1.68610
N         -0.12740       -2.77190        2.10580
H          0.65200        2.08630        0.18430
H         -0.49510        1.66160       -1.10060
H         -1.04630        1.71780        0.58060
H          1.46460       -1.39420       -0.77470
H          2.18760        0.23860       -0.34260
H          1.83280        1.27160        1.87640
H          0.57510        0.68790        2.98560
H          2.11550       -0.17100        2.85710
