16
gdb 1901	3.65023	2.95308	2.21579	1.5553	61.08	-0.2406	0.0709	0.3115	667.924	0.13707	-325.699665	-325.693006	-325.692062	-325.7298	25.744
C         -0.07880        1.55240       -0.05480
C          0.10990        0.04980       -0.00040
N          1.35040       -0.57780       -0.69270
C          2.14580       -0.14530        0.54880
C          0.82410       -0.68940        1.14860
O          0.37200       -0.71510        2.45720
C          1.00280       -1.83410        0.11800
H         -0.23360        1.87030       -1.09100
H         -0.97270        1.82400        0.51600
H          0.75840        2.12230        0.35280
H         -0.80240       -0.44450       -0.35230
H          3.05520       -0.73410        0.69810
H          2.36150        0.92140        0.59970
H          0.99120       -1.22580        2.99040
H          0.10970       -2.35370       -0.23850
H          1.84950       -2.51530        0.23830
