14
gdb 3262	3.66811	3.55542	1.88256	1.943	60.29	-0.2445	0.011	0.2555	660.1541	0.115028	-324.570906	-324.56465	-324.563706	-324.601415	22.51
C         -0.10250        1.43790        0.23150
O          1.07430        2.24890        0.22320
C          2.20610        1.89240        0.88490
N          2.75660        0.78880        1.13270
C          2.35740       -0.52770        0.69850
C          1.04830       -0.81050        0.01750
C          0.02100        0.00510       -0.19040
H         -0.54370        1.48950        1.23880
H         -0.78900        1.96210       -0.43970
H          2.71110        2.80540        1.20510
H          3.16580       -0.88550        0.04150
H          2.42640       -1.19450        1.57280
H          0.95810       -1.84260       -0.32010
H         -0.86950       -0.38950       -0.67490
