16
gdb 5621	3.23926	1.86994	1.2705	2.8742	67.36	-0.184	0.0461	0.23	948.6135	0.131997	-379.935599	-379.927678	-379.926734	-379.968181	29.468
C         -0.58630        1.02250        0.04880
N          0.40570       -0.03130       -0.18640
C          0.91130       -0.66640        0.98300
C          1.72910       -0.21440        2.00250
N          1.89330       -1.24680        2.88190
C          1.19660       -2.36600        2.45910
C          0.58220       -2.02100        1.28010
O         -0.20420       -2.79540        0.49040
H         -0.20840        1.86600        0.64750
H         -0.93820        1.41040       -0.91270
H         -1.44240        0.59590        0.57920
H          1.15620        0.32350       -0.76810
H          2.20200        0.74120        2.16320
H          2.44790       -1.20660        3.71710
H          1.20760       -3.28670        3.01630
H         -0.40240       -2.23520       -0.27620
