13
gdb 5407	5.60867	1.72136	1.32814	1.8691	61.3	-0.2707	-0.0478	0.2228	864.117	0.098223	-394.833638	-394.827108	-394.826164	-394.864566	23.094
C         -0.01880        1.39590        0.01740
O          0.02450       -0.03470       -0.04040
C          0.62120       -0.59130       -1.08590
N          1.15340        0.18590       -2.03310
C          1.72460       -0.48840       -3.03020
N          1.80070       -1.81150       -3.14660
C          1.22840       -2.46830       -2.12940
N          0.62740       -1.93000       -1.07830
H          0.98970        1.81590        0.03550
H         -0.55590        1.80460       -0.84180
H         -0.54570        1.62780        0.94290
H          2.17120        0.10610       -3.82470
H          1.25910       -3.55510       -2.16900
