13
gdb 18416	3.35858	2.04541	1.66324	3.6861	63.84	-0.2514	-0.0212	0.2302	788.8178	0.094317	-361.402185	-361.395336	-361.394392	-361.433233	25.83
O          0.02680        0.01280        0.04660
C         -0.02120        1.19830        0.07950
C         -1.12810        2.26590        0.13590
C          0.02110        3.26530        0.04270
C          1.01990        3.06950        1.11580
C          0.69060        2.57520        2.42320
C          0.43290        2.17350        3.52650
N          1.07050        2.16260       -0.09460
H         -1.75870        2.23230       -0.75570
H         -1.75180        2.29000        1.03140
H          0.05500        4.12570       -0.61450
H          1.87040        3.74590        1.09330
H          0.20750        1.81120        4.49940
