20
gdb 18348	3.38314	2.06054	1.52458	0.1858	79.42	-0.2324	0.0256	0.258	905.7422	0.179183	-311.874307	-311.867073	-311.866129	-311.905448	28.949
C         -0.89030        1.28500        0.06320
C         -0.07590       -0.01340       -0.00510
C          0.80170       -0.14790       -1.23710
C          2.01510       -0.62950       -0.96550
C          2.21510       -0.89890        0.50360
C          3.11480        0.11870        1.26330
C          1.84690        0.95880        1.58300
C          0.94530       -0.23570        1.13540
H         -0.24980        2.17140        0.02780
H         -1.58710        1.34880       -0.77950
H         -1.48060        1.33200        0.98450
H         -0.79920       -0.84430        0.00170
H          0.44120        0.10860       -2.22890
H          2.78890       -0.82130       -1.70250
H          2.41720       -1.95640        0.70790
H          3.56340       -0.32110        2.15850
H          3.90340        0.61020        0.68660
H          1.73060        1.29300        2.61650
H          1.75260        1.82970        0.93110
H          0.51760       -0.77000        1.98640
