16
gdb 10124	2.64806	1.31135	0.93688	3.2722	63.59	-0.2481	-0.0453	0.2027	1196.5758	0.125886	-420.875891	-420.866435	-420.865491	-420.911729	30.868
C         -0.25140        1.48290        0.18740
O          0.00650        0.09210        0.26480
C          0.51840       -0.45630       -0.93080
C          1.09380       -1.84240       -0.59450
C          2.27520       -1.75870        0.35560
O          3.28870       -2.39340        0.22080
C         -0.59180       -0.62330       -1.97060
O         -0.41510       -0.64210       -3.15860
H          0.66730        2.04930       -0.02260
H         -0.99150        1.72360       -0.58960
H         -0.64740        1.78880        1.15770
H          1.30330        0.18240       -1.36500
H          0.30440       -2.42560       -0.09970
H          1.40030       -2.36840       -1.50150
H          2.13360       -1.06050        1.20680
H         -1.59810       -0.76240       -1.51040
