16
gdb 9078	4.96611	0.87346	0.76846	2.9258	66.88	-0.2589	-0.0399	0.219	1394.8284	0.12839	-379.926544	-379.91742	-379.916476	-379.961405	30.901
C          0.14580        1.49940        0.20090
C          0.01950       -0.02060       -0.03460
N         -1.33680       -0.56640        0.01190
C         -1.98740       -0.52800        1.31180
C         -3.17640       -1.48050        1.33560
O         -4.17080       -1.29780        1.98520
C          0.62260       -0.37820       -1.33090
N          1.09460       -0.62720       -2.35530
H          1.19190        1.81440        0.15700
H         -0.41090        2.05270       -0.56130
H         -0.25220        1.75990        1.18490
H          0.59740       -0.54370        0.73880
H         -1.91190       -0.12100       -0.69590
H         -1.27620       -0.90890        2.06060
H         -2.32460        0.45910        1.66120
H         -3.03550       -2.38020        0.69670
