17
gdb 18625	3.07771	2.01466	1.72561	2.4685	67.9	-0.2353	-0.0235	0.2119	839.8253	0.142915	-363.863869	-363.856601	-363.855657	-363.895337	27.673
C         -0.11630        1.52250        0.02760
C          0.00930        0.01830       -0.07820
C          0.67510       -0.72600       -1.19960
N          1.22680       -0.74900        0.17390
C          2.48850        0.04550        0.17050
C          2.72060        0.62480       -1.23940
C          1.59260        0.04050       -2.10420
O          1.49960        0.12570       -3.30240
H          0.69200        2.07430       -0.45390
H         -1.05480        1.84160       -0.43640
H         -0.15120        1.82370        1.08050
H         -0.86320       -0.49480        0.32520
H          0.22250       -1.62790       -1.60000
H          2.43740        0.81460        0.94640
H          3.29170       -0.64210        0.44660
H          2.69850        1.71800       -1.29300
H          3.67710        0.31240       -1.66770
