20
gdb 18044	3.06	2.26669	1.69822	0.2979	78.29	-0.2358	0.0267	0.2625	859.6877	0.180235	-311.875439	-311.868467	-311.867522	-311.906717	27.915
C         -0.10570        1.37890       -0.37940
C          1.19810        1.69540        0.40010
C          1.37850        0.18310        0.73100
C          1.36750       -0.17550        2.22420
C          0.00880        0.01630        2.85140
C         -1.11110       -0.25610        2.18110
C         -1.07400       -0.76920        0.76290
C          0.05940       -0.13730       -0.05840
H         -1.00630        1.82560        0.05140
H         -0.07960        1.62270       -1.44450
H          2.00290        2.12770       -0.19970
H          1.05250        2.32590        1.28180
H          2.26790       -0.24770        0.26270
H          1.67620       -1.22470        2.34910
H          2.12390        0.42050        2.74900
H         -0.03720        0.36000        3.88140
H         -2.08000       -0.13680        2.65870
H         -0.94610       -1.86240        0.77930
H         -2.03280       -0.59040        0.26120
H          0.23690       -0.74070       -0.95300
