13
gdb 21243	3.53457	1.93783	1.27026	2.7384	58.38	-0.2333	-0.0216	0.2116	896.9788	0.093998	-431.87769	-431.869661	-431.868717	-431.910353	27.448
C         -0.04270        1.46530       -0.07020
O         -0.03580        0.03020       -0.04190
C          0.58460       -0.58360       -1.03360
C          0.72330       -1.94750       -1.22150
N          0.24090       -2.98060       -0.40870
N          1.44030       -2.07760       -2.38380
N          1.74870       -1.00150       -2.91440
O          1.16330        0.09190       -1.99280
H          0.97730        1.85750       -0.03630
H         -0.54230        1.83180       -0.97100
H         -0.59450        1.76940        0.81860
H          0.98550       -3.55970       -0.03670
H         -0.41220       -3.58350       -0.89660
