13
gdb 20672	3.47351	1.96523	1.26493	3.3284	67.81	-0.2604	-0.0348	0.2255	896.9207	0.094622	-361.429049	-361.42175	-361.420806	-361.460809	26.379
C         -0.03590        1.51410        0.04250
C         -0.01170        0.02150       -0.00290
C         -0.02340       -0.81920       -1.06720
O          0.00860       -2.10300       -0.66870
N          0.04320       -2.15190        0.70980
C          0.03140       -0.89070        1.10560
C          0.05900       -0.54940        2.48110
C          0.08100       -0.20540        3.63330
H          0.85700        1.90990        0.53780
H         -0.08080        1.93720       -0.96390
H         -0.90250        1.87890        0.60360
H         -0.05270       -0.65840       -2.13400
H          0.10120        0.07890        4.65650
