14
gdb 2918	7.03815	2.06968	1.63181	2.7356	64.55	-0.2322	-0.0251	0.2071	749.1962	0.113993	-324.595031	-324.588341	-324.587397	-324.626882	23.343
C         -0.04250        1.43940        0.07150
N         -0.01100       -0.00930        0.16380
C         -1.08540       -0.66680        0.07520
O         -2.34680       -0.13040       -0.10890
C         -3.31000       -1.18280       -0.16030
C         -2.51410       -2.44470        0.01230
C         -1.22740       -2.12570        0.14730
H          0.60170        1.75890       -0.75640
H         -1.04100        1.86570       -0.07610
H          0.38960        1.86540        0.98500
H         -4.05210       -1.03370        0.63640
H         -3.84110       -1.14110       -1.12140
H         -2.95930       -3.43040        0.01910
H         -0.37880       -2.77790        0.28890
