15
gdb 19798	3.07118	2.7504	1.91214	3.5908	58.73	-0.2402	0.0589	0.2991	719.5402	0.120648	-399.743741	-399.737562	-399.736618	-399.773811	24.801
O         -0.01590        1.39580       -0.08140
C          0.03260       -0.00690        0.04240
C         -1.36330       -0.65830        0.07770
N         -2.18560       -0.26720       -1.08160
C         -1.50660       -1.58120       -1.07620
C         -0.18520       -1.58880       -1.82960
O          0.17770       -0.33230       -2.40570
C          0.74780       -0.68540       -1.13980
H         -0.54840        1.55630       -0.87290
H          0.57010       -0.22400        0.97150
H         -1.84700       -0.83020        1.03360
H         -3.16940       -0.39630       -0.85720
H         -2.09740       -2.48950       -1.03370
H          0.12210       -2.47160       -2.38340
H          1.82850       -0.80660       -1.13290
