16
gdb 3434	4.77815	2.65915	1.93099	1.4841	66.11	-0.2235	0.0247	0.2482	699.4324	0.138383	-288.628466	-288.622198	-288.621254	-288.658226	24.413
C         -0.02060        1.49920        0.06540
C         -0.02430        0.00540        0.00180
C          0.00650       -0.77330       -1.08540
C         -0.00330       -2.25260       -0.75710
C          0.02530       -2.26270        0.76810
N          1.24300       -1.65350        1.34710
C         -0.01120       -0.85080        1.23200
H          0.87570        1.87010        0.57840
H         -0.05040        1.94440       -0.93280
H         -0.88310        1.87680        0.62980
H          0.06940       -0.40660       -2.10470
H         -0.90270       -2.75160       -1.14270
H          0.86080       -2.77770       -1.18210
H         -0.46440       -3.06080        1.31560
H          1.32780       -1.97990        2.30910
H         -0.51150       -0.53490        2.14240
