15
gdb 2378	4.39168	2.35613	1.76133	3.2097	58.11	-0.2434	0.0445	0.2879	733.8474	0.125231	-341.851538	-341.844167	-341.843223	-341.882845	26.881
C          0.26850        1.35330        0.27940
C          0.01540       -0.08990       -0.08830
C          0.81330       -0.75840       -1.16980
N          0.97240       -1.13330        0.22860
C          2.12910       -0.91180        0.98710
N          3.26060       -1.47130        0.42680
O          2.13160       -0.31860        2.04550
H          1.29640        1.64980        0.05530
H         -0.41020        2.00180       -0.28440
H          0.10440        1.51580        1.34730
H         -1.01700       -0.41420        0.03400
H          0.36030       -1.50660       -1.81570
H          1.60980       -0.17570       -1.62830
H          3.13880       -2.21590       -0.24140
H          4.02860       -1.58230        1.07040
