9
gdb 23826	4.18438	2.03316	1.36831	1.1866	49.62	-0.2958	-0.1308	0.1649	765.7073	0.047305	-470.744654	-470.738604	-470.73766	-470.775727	21.294
F          0.05600        0.09390        0.00250
C         -0.08430        1.38940        0.01150
N         -1.23260        1.91250        0.02990
C         -1.27510        3.30080        0.03800
N         -2.35040        3.94840        0.05650
O         -0.03250        3.97000        0.02550
N          1.18140        3.27390        0.00510
N          1.16730        2.03570       -0.00180
H         -2.17870        4.95340        0.06000
