14
gdb 19247	3.31903	2.01383	1.60153	5.7601	61.29	-0.2613	0.0238	0.2851	806.106	0.108421	-378.682709	-378.675874	-378.674929	-378.713838	25.741
O         -0.01460        1.39150        0.19690
C          0.01640        0.01680        0.03690
C         -1.32890       -0.72340        0.05060
N         -2.07580       -0.11440       -1.07500
C         -1.13340       -1.22230       -1.33610
C          0.25800       -0.58340       -1.43830
C          0.48940        0.36040       -2.51700
N          0.67240        1.12080       -3.36810
H         -0.75200        1.71330       -0.34160
H          0.75160       -0.38680        0.73460
H         -1.84350       -1.16790        0.89270
H         -3.02100       -0.49230       -1.07580
H         -1.45890       -2.14450       -1.79840
H          1.05650       -1.32890       -1.41590
