15
gdb 6263	4.18879	1.1899	1.05175	4.5539	63.98	-0.3125	-0.066	0.2465	1129.4682	0.116566	-399.843389	-399.834633	-399.833689	-399.877235	30.127
C         -0.17560        1.52090        0.05490
C          0.01400        0.01420        0.00240
C          0.73980       -0.56150        1.21140
O         -1.33940       -0.55230       -0.06110
C         -1.46650       -1.74400       -0.63230
O         -0.60060       -2.42960       -1.10660
C         -2.87960       -2.15300       -0.62350
N         -3.97290       -2.52400       -0.64210
H          0.80050        2.01410        0.06950
H         -0.72880        1.87580       -0.81820
H         -0.72340        1.81260        0.95580
H          0.52480       -0.28410       -0.91690
H          0.19980       -0.32670        2.13360
H          0.84370       -1.64520        1.12390
H          1.74170       -0.12730        1.27830
