16
gdb 7415	3.30919	1.80152	1.18377	2.2489	62.85	-0.264	-0.0083	0.2557	978.4504	0.129726	-417.138616	-417.129872	-417.128928	-417.17218	31.147
C         -1.07850        1.19280        0.35140
N         -0.22080        0.04930        0.02480
C          0.52440       -0.57190        1.01450
C          0.39440       -0.00360        2.41560
O          1.25990       -1.52920        0.81430
C         -0.23260       -0.34290       -1.36690
N          0.55020       -1.39200       -1.68350
O         -0.92050        0.26470       -2.16430
H         -1.55570        1.50380       -0.57460
H         -1.84810        0.91650        1.07720
H         -0.49370        2.02550        0.75150
H         -0.63710       -0.05340        2.77680
H          1.03520       -0.59470        3.06840
H          0.70340        1.04510        2.45570
H          1.09700       -1.85000       -0.96460
H          0.54930       -1.67270       -2.64820
