16
gdb 17912	3.37648	2.33914	2.21279	1.4585	67.83	-0.2322	-0.0085	0.2237	718.4626	0.133054	-346.59144	-346.585586	-346.584642	-346.620841	25.253
O          0.15590        1.34340       -0.13850
C          0.01500       -0.03250        0.01200
C          0.32130       -0.64520        1.43660
C         -0.86010       -0.03230        2.20310
C         -1.91000       -0.01540        1.37640
C         -1.45370       -0.61630        0.03850
C         -1.07530       -2.08090        0.27460
C         -0.02630       -2.09800        1.10100
H         -0.38090        1.75700        0.55160
H          0.62260       -0.49370       -0.76910
H          1.31210       -0.46500        1.85230
H         -0.82500        0.27150        3.24090
H         -2.92080        0.30530        1.59030
H         -2.08620       -0.40960       -0.82420
H         -1.58960       -2.92220       -0.16970
H          0.50890       -2.95640        1.48360
