20
gdb 12283	3.86468	1.29998	1.1086	1.1447	70.93	-0.2466	0.0569	0.3035	1134.5595	0.176225	-386.130021	-386.120985	-386.120041	-386.163659	33.445
C          0.00830        1.51590       -0.18100
C          0.02030       -0.00540       -0.00030
C         -1.38050       -0.60370        0.04230
C         -2.26580       -0.57990       -1.24020
C         -2.75940       -2.00840       -0.87660
O         -2.87600       -2.97660       -1.88360
C         -1.53820       -2.14670        0.08800
O         -0.44950       -2.77540       -0.58080
H          1.02510        1.91960       -0.20880
H         -0.48800        1.80240       -1.11470
H         -0.52400        2.01040        0.63970
H          0.58560       -0.47600       -0.81140
H          0.54940       -0.26190        0.92670
H         -1.93790       -0.17650        0.88450
H         -3.01630        0.20700       -1.34060
H         -1.65410       -0.60120       -2.14830
H         -3.71040       -1.99110       -0.33700
H         -1.98790       -3.07500       -2.25060
H         -1.70550       -2.60640        1.06980
H         -0.57770       -3.72640       -0.50420
