14
gdb 21723	5.01043	1.42603	1.12527	2.2104	59.21	-0.2393	-0.0072	0.2321	1003.743	0.109084	-412.040981	-412.033336	-412.032392	-412.073872	27.276
N          0.22010        1.22820       -0.61750
C         -0.19720        0.31260        0.43150
C         -1.48300       -0.42530        0.17180
N         -2.27150       -0.30410       -0.85360
C         -3.26870       -1.20960       -0.55130
N         -4.29760       -1.44840       -1.42390
N         -3.12040       -1.84520        0.58800
O         -1.89760       -1.31480        1.07270
H          0.31520        0.71680       -1.49030
H         -0.51980        1.90380       -0.78590
H          0.59260       -0.42740        0.60730
H         -0.30160        0.86240        1.37490
H         -4.51570       -0.67020       -2.02680
H         -5.10500       -1.89780       -1.01920
