18
gdb 12192	3.37263	1.45375	1.15182	3.7189	73.96	-0.2338	0.0255	0.2594	1072.4777	0.153426	-343.982838	-343.974359	-343.973414	-344.015733	30.755
C          0.02070        1.56990        0.08040
C          0.03520        0.06050       -0.05970
C          0.77700       -0.58220       -1.27600
C          1.28540       -1.63240       -0.24770
N          0.96190       -0.67810        0.82410
C          0.46030       -1.19650        2.07840
C         -0.00930       -1.03620       -2.40550
N         -0.64640       -1.39930       -3.29960
H          1.03520        1.97310        0.01060
H         -0.59780        2.02400       -0.70080
H         -0.39670        1.86410        1.04910
H         -0.99110       -0.34190       -0.00570
H          1.58870        0.06290       -1.62120
H          0.64860       -2.53130       -0.24700
H          2.33540       -1.93200       -0.31110
H          1.24540       -1.77010        2.58160
H          0.17980       -0.36820        2.73690
H         -0.42080       -1.85350        1.95430
