17
gdb 17927	2.99073	2.41445	2.38085	0.9827	67.17	-0.2104	0.0635	0.2739	736.8133	0.143259	-363.793966	-363.787517	-363.786573	-363.824098	25.938
C          0.03660        1.54410        0.09960
C         -0.01410        0.05510       -0.02600
C          0.56140       -0.86960       -1.13350
C          1.42100       -1.51790       -0.03730
N          0.62100       -0.84920        1.05310
C         -0.70860       -1.54890        1.19000
C         -1.24040       -0.89580       -0.09510
O         -0.71030       -1.54540       -1.27450
H          1.07310        1.89600        0.13210
H         -0.46360        2.02420       -0.74830
H         -0.45570        1.87290        1.02100
H          0.98760       -0.58130       -2.09780
H          1.44260       -2.61080       -0.00280
H          2.44620       -1.13180       -0.02220
H         -0.66560       -2.64160        1.21220
H         -1.21770       -1.18530        2.08940
H         -2.29450       -0.62920       -0.20620
