18
gdb 17611	4.01729	1.30827	1.12491	3.4331	68.75	-0.2468	-0.0298	0.217	1108.1578	0.151225	-384.936244	-384.927229	-384.926285	-384.970529	31.695
C         -0.21810        1.63350        0.06580
C          0.01600        0.12830       -0.06240
C          0.99040       -0.39760        1.01470
C         -1.29320       -0.65120        0.01810
O         -2.33560       -0.16060        0.38390
C         -1.22530       -2.11630       -0.36020
C         -2.03150       -3.08860        0.40800
O         -2.42810       -2.67490       -0.88580
H          0.73000        2.17490       -0.00620
H         -0.88650        1.99800       -0.71840
H         -0.68250        1.87100        1.02660
H          0.45770       -0.09450       -1.04480
H          0.59450       -0.20520        2.01730
H          1.17070       -1.47310        0.92360
H          1.95490        0.11120        0.92890
H         -0.31370       -2.46190       -0.84630
H         -1.67950       -4.11570        0.49510
H         -2.64680       -2.71120        1.22230
