13
gdb 9576	4.58875	1.32032	1.26157	3.4334	66.8	-0.2652	-0.0002	0.265	963.5419	0.093175	-361.416908	-361.408959	-361.408015	-361.449014	29.092
O         -0.00100        1.38760       -0.03590
C          0.01990        0.00080        0.02100
C         -0.44300       -0.69740        1.28120
C         -1.34740       -0.68620        0.06180
C         -2.53630        0.11030        0.03280
C         -3.55240        0.75070       -0.00080
C          1.05500       -0.63230       -0.77120
N          1.89720       -1.12740       -1.39030
H          0.76770        1.72440        0.43930
H          0.02400       -1.63420        1.56050
H         -0.71800       -0.03780        2.09550
H         -1.39890       -1.61740       -0.49380
H         -4.44390        1.32660       -0.03430
