16
gdb 11872	4.81481	1.57444	1.35577	2.8289	66.14	-0.2532	0.0266	0.2798	914.5893	0.13248	-379.912634	-379.905738	-379.904793	-379.943939	26.348
N         -0.05640        1.27990       -0.07640
C         -0.03510        0.01890       -0.05680
C         -1.25100       -0.88610       -0.05500
C         -0.66920       -2.22810       -0.46030
C         -1.43770       -3.48400       -0.56390
N         -0.91970       -2.82290       -1.78000
C          0.78180       -2.14550       -0.01540
O          1.10060       -0.74280       -0.02910
H          0.89410        1.65400       -0.05930
H         -1.66790       -0.92160        0.95880
H         -2.02960       -0.50840       -0.72000
H         -0.96920       -4.43640       -0.32840
H         -2.50460       -3.44570       -0.35770
H         -1.67150       -2.32680       -2.25350
H          0.92620       -2.53060        1.00220
H          1.45210       -2.66510       -0.70270
