17
gdb 20872	6.86568	1.06108	0.975	3.0493	69.79	-0.2543	0.0154	0.2696	1209.7795	0.144518	-360.082044	-360.074205	-360.073261	-360.115701	27.672
C         -0.07160        1.56840       -0.01170
C         -0.10560        0.03980       -0.05730
C          0.76680       -0.53610       -1.18810
C          0.79200       -2.03000       -1.19280
N          1.23420       -2.81690       -0.22380
C          1.02250       -4.06740       -0.71780
N          0.48080       -4.11700       -1.92300
N          0.33980       -2.79860       -2.20850
H          0.94740        1.93730        0.14900
H         -0.43830        2.00570       -0.94740
H         -0.69610        1.95150        0.80080
H          0.24440       -0.37840        0.89190
H         -1.13720       -0.30920       -0.18680
H          0.41320       -0.17170       -2.16050
H          1.79410       -0.17060       -1.07090
H          1.27560       -4.96610       -0.17520
H         -0.05580       -2.51780       -3.09090
