15
gdb 4205	5.10742	1.68956	1.50421	1.5749	68.37	-0.2253	0.0282	0.2535	842.9468	0.119582	-362.562224	-362.555809	-362.554865	-362.592612	25.493
O         -0.18540        1.33240        0.01750
N         -0.01920       -0.07430        0.09040
C         -1.14250       -0.65810        0.09170
C         -1.49790       -2.09450        0.00740
C         -2.88850       -2.22290        0.67180
C         -3.26770       -0.84280        1.21410
C         -2.60530       -0.27260       -0.07830
C         -2.78530       -1.71340       -0.73170
H          0.72810        1.63560        0.00860
H         -0.85630       -2.94880       -0.15240
H         -3.23230       -3.19500        1.00210
H         -4.35170       -0.70030        1.20540
H         -2.85270       -0.51570        2.17310
H         -2.88720        0.68580       -0.50140
H         -3.15850       -2.04880       -1.68720
