13
gdb 3681	3.7875	3.28295	1.78202	3.4669	55.54	-0.2301	0.0088	0.2388	674.9587	0.102779	-340.635968	-340.629419	-340.628475	-340.666206	23.958
C         -0.05390        1.52530        0.02270
C         -0.01450        0.03190       -0.00100
C         -0.01470       -0.82650       -1.05100
O          0.00680       -2.10280       -0.64490
N          0.03440       -2.12570        0.75540
C          0.01170       -0.86300        1.12050
N         -0.05680       -0.49770        2.45590
H          0.85390        1.95270        0.46710
H         -0.14350        1.93280       -0.98750
H         -0.90400        1.89220        0.60900
H         -0.03540       -0.67210       -2.11970
H          0.15200       -1.26540        3.08080
H          0.48450        0.32380        2.68700
