19
gdb 11108	4.60541	1.1619	0.99353	2.3292	75.41	-0.2446	0.0349	0.2795	1232.9533	0.164367	-365.070146	-365.061169	-365.060225	-365.104345	31.634
C          0.07400        1.63860        0.06230
C          0.42630        0.15360        0.18630
C          0.60760       -0.52020       -1.15930
C          0.64870       -2.06370       -1.20870
C         -0.62420       -1.91800       -2.01190
O         -0.63700       -0.53110       -1.94350
N         -1.41370       -2.71150       -2.56790
C         -2.56590       -2.18040       -3.28310
H          0.87110        2.19430       -0.44380
H         -0.84450        1.76670       -0.51710
H         -0.07650        2.09100        1.04660
H          1.35690        0.02690        0.75510
H         -0.35810       -0.37610        0.74100
H          1.39230       -0.02920       -1.74560
H          1.48530       -2.51010       -1.74860
H          0.52810       -2.56490       -0.24570
H         -2.63380       -1.08620       -3.27670
H         -2.53120       -2.52380       -4.32300
H         -3.48150       -2.59120       -2.84310
