18
gdb 20104	4.93509	1.49759	1.36601	1.5813	72.08	-0.2449	0.0829	0.3278	954.2928	0.15447	-347.751166	-347.744	-347.743056	-347.782713	27.624
C          0.48320        1.44790        0.08490
O          1.05910        0.23360       -0.40140
C         -0.29540        0.19850        0.05740
C         -0.57270       -0.60200        1.27690
C          0.49170       -0.96850        2.27010
C         -0.25250       -2.07570        1.57260
C         -1.63200       -2.26950        2.21180
C         -1.96590       -0.77210        1.90410
H          0.88040        1.80230        1.03460
H          0.30840        2.21460       -0.66860
H         -1.02700        0.08580       -0.74620
H          1.50420       -0.80840        1.91510
H          0.34200       -0.78840        3.33320
H          0.26440       -2.79220        0.94570
H         -2.27500       -2.95760        1.65890
H         -1.63080       -2.56650        3.26580
H         -2.19060       -0.12190        2.75610
H         -2.77310       -0.67450        1.17300
