20
gdb 15718	3.32988	1.61458	1.26003	2.6331	71.24	-0.2378	0.0648	0.3026	1038.9553	0.177125	-386.148918	-386.140264	-386.13932	-386.182234	31.881
C         -0.00960        1.54700        0.01430
C          0.04490        0.01800        0.07090
C          0.65180       -0.59010       -1.18930
O          1.99290       -0.11140       -1.37420
C          2.86210       -1.18750       -1.71500
C          1.94750       -2.34000       -2.14250
C          0.74190       -2.12530       -1.21650
O          1.00050       -2.59300        0.10130
H          0.99330        1.96160       -0.11630
H         -0.62690        1.89380       -0.82260
H         -0.43480        1.95900        0.93460
H          0.63070       -0.31380        0.93210
H         -0.96500       -0.39230        0.19820
H          0.05390       -0.27550       -2.06150
H          3.54060       -0.85670       -2.50840
H          3.46410       -1.47470       -0.84150
H          1.64150       -2.22840       -3.18840
H          2.40380       -3.32730       -2.02380
H         -0.18360       -2.56650       -1.61170
H          1.13780       -3.54410        0.05650
