13
gdb 21168	3.59041	1.87243	1.24542	4.1478	59.45	-0.2002	-0.0165	0.1838	907.925	0.094366	-431.884378	-431.876423	-431.875478	-431.916999	27.488
C          0.13700        1.50170        0.03610
N         -0.16700        0.08640       -0.12300
C          0.47770       -0.66400       -1.05730
C          0.59900       -2.02720       -1.21310
O          0.11230       -2.98840       -0.38770
N          1.29350       -2.24590       -2.34640
N          1.62390       -1.16110       -2.91470
O          1.09490       -0.08360       -2.07860
H          1.15970        1.68500        0.39320
H          0.01310        2.01000       -0.92240
H         -0.56980        1.93050        0.74870
H         -0.39390       -0.42330        0.71740
H          0.40050       -3.84110       -0.73280
