14
gdb 649	5.60754	4.61367	4.23469	1.6503	52.41	-0.2355	0.0984	0.3339	432.4575	0.122543	-270.407057	-270.402557	-270.401612	-270.434586	18.239
C         -0.04750        1.57470       -0.04630
C          1.49960        1.35610        0.00180
C          1.19650        0.17020        0.97410
C         -0.01320        0.02760        0.01750
O          0.59090       -0.34520       -1.23210
C          1.69960        0.58250       -1.30690
H         -0.43610        2.04020        0.86080
H         -0.48250        2.02850       -0.94010
H          2.20640        2.15160        0.23510
H          1.90180       -0.66350        1.01550
H          0.92340        0.50530        1.97590
H         -0.88050       -0.60270        0.20740
H          1.60770        1.20680       -2.20370
H          2.64750        0.03290       -1.35080
