12
gdb 2955	4.89733	2.25858	1.62341	5.2724	57.93	-0.2712	-0.0542	0.217	720.2612	0.090591	-319.533364	-319.526791	-319.525847	-319.564171	22.907
N          0.04010        1.23890        0.29850
C          0.10640        0.02330       -0.07340
C         -1.10850       -0.77560       -0.05200
N         -2.04960       -1.44540       -0.02450
N          1.20070       -0.66540       -0.59700
C          2.51690       -0.60080        0.01230
C          1.73660       -1.87890        0.00400
H          0.95870        1.68370        0.23490
H          3.34650       -0.46320       -0.67420
H          2.60520       -0.07400        0.96000
H          1.30640       -2.20870        0.94590
H          1.99080       -2.67070       -0.69330
