18
gdb 16424	3.18699	2.2688	1.87878	2.5181	65.85	-0.241	0.0781	0.3191	789.554	0.156887	-384.932823	-384.926354	-384.92541	-384.963085	26.694
O          0.06420        1.37480       -0.20610
C          0.07410       -0.02850       -0.00550
C          0.74860       -0.43740        1.32940
C         -0.25800       -0.47020        2.50830
C         -1.64460       -0.83020        1.97830
C         -1.58650       -1.82420        0.79600
C         -1.37850       -0.52930       -0.00980
O         -2.05040        0.22650        1.04690
H         -0.64570        1.70520        0.36260
H          0.63460       -0.45260       -0.84630
H          1.19150       -1.43190        1.20730
H          1.57440        0.25070        1.52710
H          0.06520       -1.18620        3.27260
H         -0.33210        0.50790        2.99630
H         -2.38930       -0.98400        2.76330
H         -0.80730       -2.58830        0.78310
H         -2.55980       -2.27360        0.59420
H         -1.86660       -0.39970       -0.97870
