16
gdb 18464	3.32704	1.64634	1.36239	2.8051	64.93	-0.2455	-0.0173	0.2282	931.973	0.130356	-383.72027	-383.712816	-383.711871	-383.752394	27.899
O          0.09960        1.27520        0.34300
C          0.06530       -0.03200       -0.20430
C         -1.32060       -0.63990       -0.11310
C         -1.66100       -2.08770       -0.10600
C         -0.59680       -2.93030        0.61680
C         -0.88190       -2.07520        1.88040
O         -0.54400       -2.17400        3.02620
C         -1.90440       -1.23300        1.17430
H         -0.12050        1.20310        1.27820
H          0.34590        0.08040       -1.25730
H          0.81780       -0.68060        0.26440
H         -2.06500       -0.02510       -0.61570
H         -2.42990       -2.50030       -0.74610
H         -0.92160       -3.95890        0.80150
H          0.41760       -2.94840        0.21120
H         -2.82080       -0.84550        1.60240
