13
gdb 3957	7.38588	1.94221	1.59714	1.2726	55.45	-0.2399	0.025	0.2649	735.4575	0.103848	-340.646592	-340.640167	-340.639223	-340.677445	22.914
O          0.05760        1.30290        0.51030
C         -0.02430        0.00840       -0.07420
C         -1.44520       -0.45360        0.00280
N         -1.73080       -1.72910        0.25590
N         -3.07600       -1.78510        0.21240
C         -3.65010       -0.58500       -0.04700
C         -2.61720        0.31360       -0.19400
H          0.94230        1.64270        0.34700
H          0.30020        0.03970       -1.12750
H          0.61300       -0.72320        0.44240
H         -3.53190       -2.66390        0.38760
H         -4.72120       -0.46890       -0.10020
H         -2.68460        1.36900       -0.39690
