24
gdb 5985	3.73901	0.97411	0.9485	1.2979	81.51	-0.2606	0.0725	0.3331	1386.268	0.220706	-351.410659	-351.399741	-351.398797	-351.446658	39.637
C          0.20950        1.49550        0.00760
C         -0.06540       -0.01250        0.00270
C         -1.55130       -0.46650        0.01450
C         -2.25430        0.05250        1.28380
C         -2.27860        0.06640       -1.23530
C         -1.52470       -2.01600        0.00570
C         -2.86550       -2.74400        0.01500
O         -2.57630       -4.13790        0.00410
H          1.28870        1.67950       -0.00110
H         -0.21050        1.99550       -0.87030
H         -0.19470        1.98690        0.89770
H          0.41570       -0.45400       -0.88000
H          0.43220       -0.46270        0.87170
H         -2.24770        1.14570        1.32610
H         -3.30190       -0.26150        1.32150
H         -1.76160       -0.32070        2.18900
H         -1.80320       -0.29650       -2.15380
H         -3.32670       -0.24760       -1.25640
H         -2.27300        1.16000       -1.26550
H         -0.97330       -2.35910       -0.87890
H         -0.95590       -2.36880        0.87540
H         -3.44810       -2.47520        0.90910
H         -3.46590       -2.46500       -0.86410
H         -3.41090       -4.61550        0.00980
