17
gdb 15525	3.05917	1.79245	1.16123	5.4592	75.67	-0.2099	-0.0275	0.1824	1007.4273	0.143114	-363.903562	-363.895607	-363.894663	-363.935742	29.556
N          0.08680        1.32710        0.25750
C         -0.00580       -0.00870        0.00730
C         -1.11060       -0.81040       -0.02160
C         -0.72930       -2.24540       -0.32140
C          0.80120       -2.26410       -0.09310
C          1.25260       -0.79760       -0.27460
C         -2.47430       -0.38430        0.15600
O         -3.45020       -1.11190        0.09310
H          0.93730        1.80240        0.00740
H         -0.74410        1.89520        0.24220
H         -1.26010       -2.95640        0.31820
H         -0.98760       -2.51300       -1.35500
H          1.01520       -2.57970        0.93280
H          1.32800       -2.94950       -0.76130
H          1.58440       -0.59440       -1.30330
H          2.07890       -0.50940        0.38530
H         -2.61210        0.70510        0.37050
