20
gdb 12415	2.85394	1.99718	1.43925	1.9723	70.52	-0.2376	0.0639	0.3016	942.8043	0.178303	-386.151437	-386.143354	-386.14241	-386.1833	31.343
C         -0.00500        1.55250       -0.00510
C          0.05380        0.02330        0.01180
C          0.73040       -0.53510       -1.24880
O          0.76020       -1.95430       -1.25570
C          1.49110       -2.47510       -0.15970
C          0.86600       -2.05730        1.17390
C          0.76150       -0.52670        1.26200
O          2.05390        0.07810        1.31880
H          1.00020        1.98150       -0.00590
H         -0.53720        1.91460       -0.89100
H         -0.52880        1.93350        0.87800
H         -0.96890       -0.37570        0.03310
H          0.17550       -0.23840       -2.14410
H          1.75190       -0.13100       -1.32920
H          1.48480       -3.56290       -0.27390
H          2.53690       -2.13140       -0.20120
H         -0.13660       -2.49290        1.25990
H          1.46180       -2.44650        2.01060
H          0.17990       -0.24500        2.15450
H          2.51230       -0.26980        2.08970
