12
gdb 856	7.20274	2.19711	1.68935	2.1678	52.57	-0.182	0.0417	0.2236	688.8067	0.092273	-356.726146	-356.719817	-356.718873	-356.75582	23.972
N          0.02170        1.31890        0.14830
C         -0.04320       -0.04920        0.06230
N         -1.11140       -0.79000        0.08430
C         -0.61130       -2.08920        0.05060
N         -1.49640       -3.15800        0.13180
C          0.74300       -2.05920       -0.00330
O          1.12020       -0.71050        0.00790
H          0.82900        1.73130       -0.29550
H         -0.84780        1.77090       -0.09170
H         -2.41410       -2.90290       -0.20760
H         -1.16590       -4.00270       -0.31300
H          1.53820       -2.77960       -0.04100
