12
gdb 21811	6.99977	1.19053	1.11361	3.5108	56.07	-0.2867	-0.0626	0.2241	993.1454	0.083636	-410.818522	-410.811561	-410.810617	-410.851713	23.003
O         -0.24270        0.44980        0.87000
C          0.01600        1.12970       -0.08250
C          1.41060        1.72080       -0.31430
N          1.38950        2.85930       -1.20690
C          1.24100        4.17570       -0.96250
N          1.21530        4.82410       -2.10500
N          1.34380        3.87210       -3.06770
N          1.44620        2.69520       -2.54940
H         -0.72370        1.36660       -0.87700
H          1.85500        1.99890        0.64350
H          2.03700        0.94940       -0.77350
H          1.16780        4.60580        0.02330
