19
gdb 2237	4.35147	2.52978	2.07111	0.1615	70.51	-0.2527	0.0893	0.342	729.8344	0.173815	-273.796695	-273.790045	-273.789101	-273.826619	26.781
C         -0.18570        1.53470        0.11460
C          0.07570        0.05210       -0.00160
C         -0.78250       -0.92360        0.77140
C          0.68040       -0.76670        1.12250
C          1.65770       -1.76910        0.52720
C          1.26390       -1.85820       -0.96630
C          0.66950       -0.47280       -1.30740
H          0.72220        2.11550       -0.08970
H         -0.95300        1.86310       -0.59700
H         -0.53330        1.80160        1.11790
H         -1.50190       -0.49850        1.46380
H         -1.12300       -1.83980        0.29830
H          0.92710       -0.30250        2.07210
H          2.67910       -1.38240        0.63160
H          1.63370       -2.74750        1.02020
H          2.10960       -2.12020       -1.60760
H          0.51030       -2.63860       -1.11130
H         -0.06180       -0.52200       -2.12270
H          1.46230        0.21400       -1.63230
