16
gdb 18493	6.14118	1.2597	1.16121	4.4896	69.04	-0.2327	0.0247	0.2574	1018.5607	0.13124	-342.742038	-342.73485	-342.733906	-342.773913	26.756
N          0.06640       -1.15000       -0.19330
C          0.02390       -0.01440        0.01330
C         -0.03910        1.43250        0.24880
N          1.25670        2.05450        0.02980
C          1.78650        2.17190       -1.36470
C          1.97400        3.67650       -1.15550
C          0.64210        4.30560       -0.83620
C          1.35610        3.50120        0.22110
H         -0.85180        1.83970       -0.37990
H         -0.33090        1.60160        1.29210
H          2.70910        1.59890       -1.48840
H          1.07990        1.88870       -2.15610
H          2.84770        4.24750       -1.43680
H          0.66110        5.37950       -0.67930
H         -0.26560        3.94080       -1.31080
H          1.64460        3.90850        1.18400
