13
gdb 13744	3.16416	1.67533	1.41278	4.3797	59.05	-0.2581	-0.0106	0.2474	885.7633	0.096046	-394.795677	-394.788016	-394.787072	-394.828065	27.355
N          0.94800        0.20340        0.70760
C         -0.02660        0.00430       -0.21080
O         -0.16120        0.63430       -1.24080
C         -0.99760       -1.10700        0.13140
N         -0.74840       -1.91810        1.32110
C         -1.92220       -1.03180        1.31710
C         -1.90510        0.07160        2.24830
N         -1.91710        0.95120        2.99770
H          1.57810        0.97850        0.58820
H          0.99550       -0.36800        1.53510
H         -1.42460       -1.56750       -0.75480
H         -1.02820       -2.88600        1.18940
H         -2.90600       -1.47350        1.18330
