15
gdb 17740	6.40982	1.73162	1.65411	3.2711	65.88	-0.2353	0.0692	0.3045	795.2316	0.119436	-362.524232	-362.518395	-362.517451	-362.553944	23.542
C          0.04260        1.56760       -0.00970
O          1.21520        0.71930       -0.02170
C         -0.04760        0.11460        0.00610
C         -0.57670       -0.93490        0.96170
C         -1.81430       -1.21690        0.04970
C         -1.45960       -2.69870        0.05810
N         -0.06390       -2.07940        0.02780
C         -0.60910       -0.95330       -0.90990
H         -0.10700        2.13520        0.90740
H         -0.13880        2.11720       -0.93210
H         -0.50190       -1.02600        2.04520
H         -2.78260       -0.70570        0.06140
H         -1.66080       -3.27480        0.96670
H         -1.69190       -3.29240       -0.83170
H         -0.57180       -1.06560       -1.99340
