16
gdb 14697	6.94266	0.59824	0.57087	1.8573	71.14	-0.2479	-0.0284	0.2195	1853.8259	0.127197	-383.715497	-383.705789	-383.704845	-383.753033	31.654
O         -0.03400        1.35570        0.39680
C         -0.09790       -0.05930        0.41790
C         -1.21320       -0.46690       -0.55180
C         -1.39120       -1.91080       -0.62830
C         -1.51040       -3.10770       -0.68910
C         -1.69080       -4.55200       -0.71160
C         -2.45170       -5.06090        0.51480
O         -2.19370       -6.08760        1.08110
H          0.65990        1.63680        0.99990
H          0.84990       -0.51660        0.09710
H         -0.32880       -0.44360        1.42260
H         -2.14410        0.01620       -0.23090
H         -0.97850       -0.05750       -1.54180
H         -2.28240       -4.84620       -1.59270
H         -0.74120       -5.09370       -0.77300
H         -3.28540       -4.40070        0.83910
