15
gdb 13926	3.6518	1.88618	1.5429	3.7863	61.82	-0.2336	0.0153	0.2488	843.29	0.119425	-399.795161	-399.787907	-399.786963	-399.827188	26.062
O         -0.23460        0.00660        0.06750
C         -0.12050        1.20080        0.01620
N         -1.02010        2.23870       -0.02240
C         -0.03190        3.31990       -0.09240
C          1.06500        2.21840        0.00390
C          2.15770        2.15670        1.08610
C          3.11690        1.98670       -0.10900
O          2.02320        2.12970       -1.04750
H         -2.02860        2.25020       -0.00460
H         -0.01340        3.85830       -1.04480
H         -0.07030        4.02680        0.74300
H          2.28600        3.07500        1.66150
H          2.08380        1.30400        1.76200
H          3.87130        2.76900       -0.24600
H          3.59240        1.00390       -0.19240
