14
gdb 21271	7.19126	1.35628	1.15766	1.6151	60.33	-0.2574	0.0032	0.2606	1005.5553	0.106868	-415.865407	-415.857792	-415.856848	-415.897598	26.333
C          0.00870        1.38780       -0.03790
O         -0.03330       -0.04760       -0.06490
C          0.57890       -0.65090       -1.06110
N          0.64250       -1.93550       -1.24470
C          1.38160       -2.00590       -2.40380
C          1.74480       -3.29500       -3.05540
N          1.75140       -0.85510       -2.90690
O          1.20280        0.08240       -1.98770
H          1.04030        1.74280        0.03030
H         -0.46150        1.80480       -0.93230
H         -0.54960        1.67580        0.85170
H          0.84060       -3.85310       -3.31600
H          2.32950       -3.11110       -3.95780
H          2.32590       -3.91470       -2.36620
