18
gdb 19196	3.15168	2.06039	1.67914	0.8106	66.87	-0.2299	0.068	0.2979	848.5912	0.154843	-384.911103	-384.903884	-384.90294	-384.942059	28.575
C         -0.09500        1.63420        0.04230
C          0.01090        0.12000        0.00310
C          0.84590       -0.63050       -1.10010
C          2.23000       -0.01390       -0.89430
O          2.30120       -0.02710        0.55680
C          1.03660       -0.61210        0.90780
C          0.94970       -1.80960       -0.08660
O         -0.22200       -2.58930       -0.06550
H          0.88570        2.10850        0.13070
H         -0.58590        2.02070       -0.85780
H         -0.69250        1.95380        0.90320
H         -0.96680       -0.35530        0.08460
H          0.48870       -0.77500       -2.11910
H          3.04410       -0.61700       -1.31240
H          2.32160        1.01150       -1.26850
H          0.95880       -0.70020        1.99190
H          1.85570       -2.42750       -0.14550
H         -0.19340       -3.14800        0.71770
