12
gdb 2897	5.08928	2.30726	2.09871	3.6235	49.58	-0.2937	0.0129	0.3066	639.2745	0.091185	-360.512793	-360.506476	-360.505532	-360.544254	21.184
N          0.46180       -1.04280        0.01320
C          0.19360        0.08060        0.02400
C         -0.15190        1.53810        0.03700
O         -0.73890        1.89380        1.25840
C          0.32020        2.33520        2.12030
C          1.55030        2.44080        1.18930
O          0.99190        2.32290       -0.12250
H         -0.84930        1.74990       -0.77800
H          0.02210        3.29680        2.54600
H          0.47770        1.61520        2.92960
H          2.06520        3.40080        1.24570
H          2.26690        1.63160        1.37400
