13
gdb 8663	2.46516	1.83858	1.47882	3.3341	54.9	-0.2842	-0.0611	0.2231	885.3737	0.092522	-435.737388	-435.728829	-435.727885	-435.771053	29.378
O          0.14390        1.19760       -0.26520
C         -0.01580       -0.16040        0.08670
C         -1.52730       -0.53390        0.03070
O         -2.06490       -0.15010       -1.20800
C         -1.65940       -2.06170        0.15080
O         -1.48650       -2.66230        1.17260
C         -2.21200        0.15000        1.15000
N         -2.70790        0.74720        2.00600
H         -0.13490        1.74060        0.48260
H          0.50880       -0.74230       -0.67660
H          0.39390       -0.40500        1.07260
H         -1.63930        0.69030       -1.43560
H         -1.88410       -2.54300       -0.82320
