10
gdb 3906	5.76391	2.93234	1.94357	5.0371	51.21	-0.2729	-0.0918	0.1811	588.5266	0.06766	-359.315205	-359.309996	-359.309051	-359.344257	19.039
O         -0.00420       -0.05650        0.00320
C          0.03400        1.14250        0.00920
O         -1.18340        1.83160        0.02820
N         -1.30110        3.20760        0.03650
C         -0.20640        3.88940        0.02570
C          1.11170        3.31800        0.00560
C          1.22770        1.97790       -0.00250
H         -0.35510        4.96440        0.03290
H          1.97730        3.97180       -0.00250
H          2.17710        1.45670       -0.01760
