14
gdb 677	5.709	4.53256	3.23119	1.8302	52.03	-0.2561	0.0972	0.3533	469.3823	0.12194	-270.430832	-270.425853	-270.424909	-270.458919	19.278
C          0.16970        1.39810        0.39640
C          1.39450        2.00840       -0.33080
C          2.13490        0.79970       -0.86800
O          2.29380       -0.25160        0.09710
C          1.23440       -0.36020       -0.86600
C         -0.11930        0.05880       -0.32760
H          0.43140        1.19660        1.43700
H         -0.69310        2.06800        0.39740
H          1.08900        2.63770       -1.17650
H          2.00970        2.62580        0.33110
H          2.95410        0.91000       -1.57440
H          1.32930       -1.18260       -1.57090
H         -0.56390       -0.68890        0.33660
H         -0.80600        0.19700       -1.17240
