11
gdb 3925	8.32494	2.19524	1.73716	4.3084	55.29	-0.2698	-0.0508	0.2191	656.8842	0.080394	-339.467484	-339.462046	-339.461102	-339.496824	19.446
O         -0.05960       -0.03240        0.00010
C          0.00820        1.16070        0.00890
N          1.19930        1.90350        0.00190
C          1.28110        3.27710        0.01190
C          2.60960        3.59150        0.00020
C          3.27150        2.33020       -0.01680
N          2.42750        1.31700       -0.01580
H         -0.86440        1.84010        0.02340
H          0.39280        3.88860        0.02620
H          3.05080        4.57480        0.00330
H          4.33480        2.13670       -0.02970
