15
gdb 20569	4.5928	1.47302	1.19997	4.1728	62.4	-0.2529	-0.0072	0.2457	974.3369	0.118648	-399.789263	-399.781681	-399.780737	-399.821783	27.371
C          0.18040        1.46520        0.26050
C         -0.10230       -0.01290       -0.03550
O         -1.48300       -0.23560       -0.30040
C          0.64390       -0.50290       -1.23910
C          0.13370       -0.96120       -2.41230
O          1.11880       -1.30680       -3.25560
N          2.34230       -1.07940       -2.63890
C          2.04810       -0.60730       -1.45270
H          1.24610        1.63350        0.44450
H         -0.13020        2.08410       -0.58570
H         -0.36590        1.78810        1.15440
H          0.21210       -0.60740        0.83940
H         -1.98760        0.12120        0.43690
H         -0.87430       -1.09630       -2.76720
H          2.85530       -0.35510       -0.77850
