17
gdb 2044	4.21553	2.90709	2.1646	1.8593	64.1	-0.2346	0.0917	0.3264	674.4208	0.147654	-309.649998	-309.64326	-309.642316	-309.680057	26.489
C         -0.14700        1.57600        0.00520
C         -0.01260        0.05420        0.01040
C         -1.37520       -0.59610       -0.21960
C          1.20170       -0.63740       -0.70460
C          2.18010       -0.10190        0.36720
C          0.91320       -0.65680        1.05980
O          0.99780       -1.82830        0.15480
H          0.78970        2.11190        0.16350
H         -0.56370        1.91200       -0.95110
H         -0.84650        1.89290        0.78710
H         -1.79700       -0.27280       -1.17820
H         -1.29830       -1.68280       -0.21870
H         -2.08160       -0.29160        0.56130
H          1.36810       -0.81380       -1.76900
H          3.06440       -0.72400        0.50490
H          2.40770        0.96260        0.41620
H          0.73260       -0.85660        2.11770
