20
gdb 10233	3.12132	1.15676	0.89146	4.1959	68.58	-0.2441	0.07	0.314	1308.977	0.175184	-423.252644	-423.242627	-423.241683	-423.287799	34.879
C         -0.00220        1.37410       -0.10380
O          0.02360       -0.03590       -0.09060
C         -1.26670       -0.61730        0.01520
C         -1.14690       -2.14040       -0.03430
C         -2.53230       -2.76850        0.12700
O         -2.36500       -4.16810        0.28880
C         -0.46690       -2.62590       -1.32750
O          0.91540       -2.34380       -1.37590
H          1.03110        1.72000       -0.17830
H         -0.57380        1.76200       -0.96070
H         -0.44760        1.77470        0.81930
H         -1.74210       -0.29330        0.95610
H         -1.90360       -0.25870       -0.81290
H         -0.52900       -2.46900        0.81040
H         -3.04160       -2.32800        0.99970
H         -3.14900       -2.54160       -0.75900
H         -3.23470       -4.57790        0.29630
H         -0.57380       -3.71160       -1.39440
H         -1.00240       -2.18950       -2.19220
H          1.00930       -1.41730       -1.12030
