18
gdb 14136	3.96461	1.63195	1.41362	1.3501	72.85	-0.2311	0.0335	0.2646	933.4887	0.154285	-347.796408	-347.788925	-347.78798	-347.828288	29.078
O         -0.10450        1.43860       -0.03570
C         -0.05920        0.04200       -0.00000
C         -0.55030       -0.69230        1.22260
C         -1.37220       -0.69080       -0.04820
C         -2.68100        0.10710       -0.15570
C         -3.42030       -0.60600       -1.26110
C         -2.79560       -1.70880       -1.66870
C         -1.51260       -1.95480       -0.91200
H          0.53660        1.77500        0.59860
H          0.77170       -0.39810       -0.55420
H         -0.04640       -1.60760        1.51930
H         -0.91170       -0.08310        2.04600
H         -3.25590        0.08810        0.78120
H         -2.48940        1.16170       -0.38010
H         -4.36600       -0.24410       -1.64970
H         -3.15170       -2.38330       -2.43960
H         -0.65200       -2.10000       -1.57870
H         -1.58100       -2.86600       -0.29960
