22
gdb 7010	2.33139	1.9393	1.51481	1.5935	77.97	-0.2376	0.0784	0.316	1014.3336	0.197911	-350.208161	-350.198623	-350.197678	-350.24167	35.918
C         -1.04170        1.04250       -1.05650
C         -0.04010       -0.05540       -0.76320
O          1.28350        0.24710       -1.25930
C          1.89380       -0.31190       -0.07430
C          3.07960        0.49580        0.41170
C          0.52140       -0.31450        0.67080
C          0.32670        0.84380        1.64870
C          0.11730       -1.63870        1.31220
H         -0.73010        2.00140       -0.63560
H         -1.14390        1.16600       -2.13950
H         -2.02680        0.78380       -0.65310
H         -0.39980       -0.99820       -1.20730
H          2.22070       -1.34580       -0.27380
H          2.80700        1.53230        0.62440
H          3.50490        0.05000        1.31750
H          3.85890        0.50240       -0.35730
H          0.60870        1.80650        1.21550
H         -0.72070        0.91360        1.96200
H          0.93070        0.69460        2.55030
H          0.71600       -1.84350        2.20740
H         -0.93510       -1.62450        1.61920
H          0.25260       -2.47650        0.62030
