14
gdb 19576	3.53204	2.49122	2.0965	4.0884	59.86	-0.2444	-0.0073	0.2371	688.2339	0.108357	-382.501496	-382.49584	-382.494896	-382.53104	22.982
O          0.00490       -0.00120        0.08420
C         -0.01420        1.18090       -0.04970
C         -1.08810        2.29160        0.01950
C         -0.02660        2.97760        0.96600
C          1.02840        2.32260       -0.00920
C          0.67530        3.05900       -1.31510
O         -0.06010        2.26800       -2.26590
C         -0.79230        3.03750       -1.29520
H         -2.11870        2.10730        0.31190
H         -0.04240        4.06940        0.98250
H         -0.00700        2.57200        1.97980
H          2.07150        2.16850        0.25510
H          1.29330        3.85170       -1.72170
H         -1.44390        3.81160       -1.68460
