16
gdb 14282	3.6706	1.79857	1.72975	4.1407	63.66	-0.2691	0.0108	0.2799	831.6387	0.13133	-383.774176	-383.76717	-383.766226	-383.805492	26.493
C         -0.33420        1.46080        0.09890
C         -0.02270       -0.01370       -0.02830
C          0.72070       -0.63460       -1.20570
C          1.59080        0.25480       -2.06550
C          2.64070        0.82610       -1.10550
O          3.50390        1.61840       -1.33640
O          2.44590        0.30430        0.14620
C          1.35200       -0.59180        0.16490
H          0.49780        2.09740       -0.21080
H         -1.20380        1.72710       -0.51090
H         -0.56370        1.71370        1.13890
H         -0.80670       -0.66240        0.35590
H          0.35060       -1.56320       -1.62200
H          2.10400       -0.30740       -2.85160
H          1.07200        1.08600       -2.55170
H          1.54360       -1.45520        0.78940
