15
gdb 11226	4.80078	1.41068	1.2112	1.3958	68.33	-0.2519	0.0188	0.2708	998.2507	0.118138	-362.649422	-362.641535	-362.640591	-362.682304	28.159
C          0.05790        1.53040       -0.05200
C         -0.03690        0.04350       -0.04610
N         -1.05600       -0.64200        0.28210
C         -0.67700       -2.06450        0.12400
C          0.81360       -2.01120       -0.34680
O          1.09540       -0.60290       -0.44090
C         -0.86340       -2.82850        1.35380
C         -0.98890       -3.47710        2.35720
H          0.86220        1.85840        0.61360
H          0.29940        1.88990       -1.05700
H         -0.88820        1.95950        0.27500
H         -1.31220       -2.50360       -0.65540
H          1.49860       -2.46090        0.37510
H          0.96720       -2.46430       -1.32910
H         -1.11380       -4.04280        3.24720
