21
gdb 1190	4.21306	1.59526	1.58608	1.3701	70.35	-0.2634	0.071	0.3344	930.2807	0.19263	-312.126404	-312.116983	-312.116038	-312.159466	34.624
C         -0.09150        1.53220        0.14090
C          0.02340        0.01390       -0.03530
C          0.74930       -0.47570       -1.31230
C          0.01340       -0.01020       -2.58250
C          2.20950        0.01280       -1.34300
C          0.73910       -2.01430       -1.26570
O          1.39440       -2.52840       -2.41780
H          0.89000        2.01290        0.19180
H         -0.64960        1.99720       -0.67730
H         -0.61900        1.76670        1.07100
H          0.54130       -0.40290        0.83950
H         -0.98650       -0.41850       -0.02290
H          0.06360        1.07630       -2.69890
H          0.45970       -0.46760       -3.46840
H         -1.04460       -0.29660       -2.55230
H          2.73480       -0.25680       -0.41910
H          2.74460       -0.44380       -2.17870
H          2.26590        1.09930       -1.45600
H          1.24420       -2.35250       -0.34610
H         -0.30370       -2.36870       -1.21930
H          1.37820       -3.48810       -2.37000
