11
gdb 5351	6.06237	1.59232	1.26109	1.9964	64.92	-0.2791	-0.0806	0.1986	857.7698	0.07545	-356.505631	-356.499726	-356.498782	-356.535847	21.266
N          0.01810       -1.16140       -0.00310
C          0.00200       -0.00410        0.00320
C         -0.01730        1.42180        0.01080
C         -1.21720        2.14400        0.03040
N         -1.24060        3.47290        0.03760
C         -0.05330        4.08380        0.02500
N          1.15000        3.50550        0.00600
C          1.16270        2.17640       -0.00100
H         -2.17280        1.62660        0.04040
H         -0.06810        5.17040        0.03080
H          2.13190        1.68520       -0.01640
