14
gdb 21320	7.26545	1.12777	1.0008	4.2018	59.71	-0.2775	-0.044	0.2334	1115.9177	0.106617	-415.802122	-415.794642	-415.793698	-415.835263	25.329
C          0.09320        1.40450       -0.02830
O          0.20710       -0.00050       -0.09560
C          0.60440       -0.57270        1.12880
C          0.63770       -2.05660        0.94810
N          1.46190       -2.83510        1.59440
O          1.17020       -4.10730        1.18720
N          0.16000       -4.11620        0.26790
C         -0.17970       -2.86800        0.11020
H          1.05370        1.87730        0.22620
H         -0.22260        1.74990       -1.01470
H         -0.65440        1.71570        0.71770
H          1.59450       -0.21460        1.44860
H         -0.10950       -0.30970        1.92880
H         -0.95800       -2.57400       -0.57470
