13
gdb 3416	4.91484	3.15906	2.20873	4.0478	54.83	-0.2574	0.0283	0.2857	593.3831	0.104156	-340.6212	-340.615711	-340.614767	-340.650456	20.741
N         -0.09610        1.23340        0.30660
C         -0.03160        0.02460       -0.03530
O          1.13000       -0.65470       -0.32700
C          0.83130       -1.95220       -0.85110
C         -0.65250       -2.13080       -0.58720
C         -1.12230       -1.94570        0.80200
N         -1.17380       -0.81740       -0.16610
H          0.83750        1.64300        0.32220
H          1.04710       -1.97110       -1.92570
H          1.46860       -2.68670       -0.34920
H         -1.24690       -2.68100       -1.30860
H         -2.09780       -2.31330        1.10100
H         -0.38130       -1.89090        1.59520
