17
gdb 2925	6.05065	1.75161	1.41225	1.485	66.51	-0.2228	0.0378	0.2606	867.9257	0.149139	-309.729139	-309.721815	-309.720871	-309.760654	26.54
O          0.00610        1.40910        0.22740
C         -0.01300        0.00230        0.06330
C         -1.42110       -0.48370       -0.04110
C         -2.53280        0.24960        0.01530
C         -3.77770       -0.58180       -0.18010
C         -3.25460       -2.03560       -0.04420
C         -1.72660       -1.94680       -0.28830
H          0.92200        1.68640        0.31590
H          0.54310       -0.30420       -0.84190
H          0.48380       -0.50680        0.90940
H         -2.54740        1.32440        0.14460
H         -4.56510       -0.35270        0.54750
H         -4.21730       -0.39630       -1.17110
H         -3.43750       -2.39260        0.97420
H         -3.75120       -2.73320       -0.72350
H         -1.45840       -2.22640       -1.31810
H         -1.15830       -2.62000        0.36570
