15
gdb 19269	3.34191	1.80578	1.3295	3.2936	62.04	-0.2256	-0.0331	0.1925	921.4942	0.117847	-399.749789	-399.742238	-399.741294	-399.781997	27.189
C          0.44190        1.22310        0.45810
N         -0.34970        0.31720       -0.36800
C          0.38200       -0.33500       -1.41260
C          1.29390       -1.55790       -1.10560
O          0.42150       -2.54180       -0.55550
C          0.52730       -2.46130       -1.99880
C         -0.40130       -1.31040       -2.37150
O         -1.27970       -1.16040       -3.16320
H          1.30340        0.75140        0.96060
H          0.82390        2.03990       -0.16450
H         -0.19950        1.66300        1.22670
H         -0.80440       -0.38480        0.20640
H          0.89440        0.41250       -2.03280
H          2.34680       -1.61730       -0.85700
H          0.82020       -3.35780       -2.53070
