16
gdb 2717	17.06369	0.82281	0.79668	4.7059	60.46	-0.2605	0.0222	0.2827	1360.9697	0.135215	-362.899677	-362.890941	-362.889997	-362.934562	28.327
O         -0.10740        1.41350        0.01080
C          0.00940        0.00080        0.00190
C         -1.40160       -0.57410        0.01220
C         -1.40720       -2.09420        0.00380
O         -2.76990       -2.52530        0.01410
C         -2.97120       -3.85560        0.00990
N         -4.14540       -4.31910        0.01820
H          0.77750        1.78970        0.00450
H          0.55140       -0.35020       -0.89210
H          0.56820       -0.35990        0.88170
H         -1.93130       -0.21360        0.89970
H         -1.94800       -0.20390       -0.86120
H         -0.90060       -2.48230       -0.89140
H         -0.88410       -2.49210        0.88510
H         -2.04070       -4.44180       -0.00090
H         -4.11530       -5.33660        0.01340
