12
gdb 3413	5.10669	3.02794	2.1331	3.8469	55.62	-0.2364	-0.0593	0.1771	590.1178	0.091966	-323.367866	-323.362573	-323.361629	-323.396791	20.341
O          0.03740       -0.00750       -0.05890
C         -0.00540        1.19750       -0.00370
C         -1.21780        2.06460        0.08170
C         -0.87340        3.35750        0.01260
C          0.61500        3.51790       -0.06180
N          1.27210        2.99840        1.16990
C          1.18000        2.15240       -0.05680
H         -2.21280        1.65630        0.20050
H         -1.55310        4.20030        0.05800
H          1.06840        4.34240       -0.59920
H          2.22320        3.36660        1.21510
H          2.08340        1.86290       -0.57920
