13
gdb 18844	4.16967	2.40228	1.97833	2.7532	61.4	-0.2261	-0.0356	0.1905	681.6177	0.097221	-361.43227	-361.426796	-361.425852	-361.461663	22.019
O         -0.00890        0.04980        0.01520
C         -0.02780        1.24340        0.09530
C         -1.10720        2.27120        0.01550
C         -0.71670        3.55740        0.70890
C          0.31340        3.52730        1.79570
C          1.37980        2.87260        1.33880
C          1.05300        2.35220       -0.03820
N         -0.07420        3.25350       -0.57230
H         -2.09350        2.11950       -0.40770
H         -1.46930        4.34090        0.67860
H          0.16950        3.96640        2.77300
H          2.28370        2.62050        1.87620
H          1.86850        2.17140       -0.73630
