22
gdb 8064	3.3517	1.52827	1.303	0.2507	82.97	-0.2821	0.095	0.3771	1078.8266	0.200588	-313.032156	-313.023767	-313.022823	-313.064862	32.583
C         -0.03110        1.59760        0.01360
C         -0.19570        0.07530       -0.08300
C          0.62020       -0.52450       -1.22180
C          2.16640       -0.73730       -1.12740
C          1.90350       -1.96570       -0.21220
C          0.85070       -2.07210       -1.36280
C         -0.19740       -3.13770       -1.55150
C          2.02040       -1.70950       -2.33130
H          1.00820        1.87080        0.22490
H         -0.31570        2.08680       -0.92470
H         -0.65480        2.01630        0.80970
H          0.06380       -0.37730        0.87970
H         -1.25490       -0.16210       -0.25180
H          0.31300       -0.05510       -2.16670
H          2.93270        0.02810       -0.99620
H          2.68140       -2.73540       -0.20390
H          1.53580       -1.78280        0.79900
H         -0.90090       -3.15520       -0.71140
H         -0.77450       -2.96600       -2.46720
H          0.25850       -4.13140       -1.62480
H          1.74150       -1.26760       -3.29300
H          2.80510       -2.46290       -2.44810
