20
gdb 8451	4.09853	1.68105	1.48291	0.1885	80.89	-0.2108	0.0257	0.2365	957.7274	0.17741	-311.852095	-311.844439	-311.843495	-311.883372	30.674
C         -0.05540        1.46730        0.06190
C         -0.00730       -0.01960        0.00060
C         -0.03220       -0.87490       -1.02670
C          0.05100       -2.26570       -0.36570
C          0.04740       -3.49980       -1.23840
C         -0.96140       -2.05120        0.81850
C          0.08980       -0.96240        1.21720
C          1.16540       -1.97760        0.70580
H          0.83790        1.87820        0.55070
H         -0.12560        1.90650       -0.93760
H         -0.91560        1.81750        0.64750
H         -0.09530       -0.67940       -2.08920
H          0.89680       -3.49710       -1.93120
H          0.11070       -4.41270       -0.63700
H         -0.86850       -3.55810       -1.83780
H         -1.96890       -1.71200        0.56380
H         -0.99800       -2.89700        1.51440
H          0.12730       -0.52100        2.21380
H          1.33350       -2.81640        1.39080
H          2.11470       -1.57080        0.34740
