15
gdb 20199	3.93589	2.80283	2.08953	1.4333	70.75	-0.2011	-0.029	0.1722	675.4982	0.120674	-325.430127	-325.424507	-325.423563	-325.459375	23.406
C          0.03410        1.51310        0.10310
C          1.50300        1.87060       -0.10000
C          2.16910        0.75110       -0.42910
C          3.10030        0.14210        0.58580
C          2.31520       -0.72410        1.24980
C          1.00190       -0.96600        0.52150
C          1.15160       -0.33190       -0.79490
N         -0.04770        0.04220       -0.07370
H         -0.25530        1.81300        1.11900
H         -0.69440        1.97010       -0.58270
H          1.95000        2.71850        0.40900
H          4.07590        0.50520        0.88140
H          2.57970       -1.25580        2.15610
H          0.50620       -1.92020        0.65610
H          1.11470       -0.81090       -1.77160
