13
gdb 3631	4.59499	4.58277	3.44438	1.3042	54.11	-0.2327	0.0888	0.3214	473.638	0.104154	-307.253245	-307.248943	-307.247999	-307.280943	18.428
O          0.00030        1.44720       -0.11660
C          1.34700        1.79440        0.03530
C          2.27790        0.72100       -0.49760
C          2.06820        0.87940        1.00750
C          1.15130       -0.35960        1.01050
C          0.06370        0.05830        0.03840
C          1.36210       -0.51880       -0.49430
H          1.55230        2.85280       -0.04740
H          3.14620        0.89820       -1.11590
H          2.74160        1.20360        1.78790
H          1.03980       -1.09580        1.79360
H         -0.88810       -0.44870       -0.04150
H          1.44660       -1.40300       -1.10970
