20
gdb 14555	3.11493	1.81273	1.43637	1.6123	74.54	-0.2286	0.0801	0.3088	968.9987	0.176373	-348.963956	-348.955624	-348.95468	-348.996742	31.627
C         -0.38080        1.39000       -0.04890
C          0.21970       -0.01610        0.08100
C          0.80920       -0.55090       -1.21470
C          2.00910        0.20930       -1.75830
C          0.88960       -2.04540       -1.52520
C         -0.37550       -2.76980       -1.08350
O         -1.22070       -1.79170       -1.74750
C         -0.06300       -1.14260       -2.28510
H          0.37030        2.13710       -0.32370
H         -1.16670        1.40630       -0.81090
H         -0.82730        1.70830        0.89830
H          1.00100       -0.01690        0.85270
H         -0.56490       -0.69180        0.43030
H          2.84520        0.17610       -1.05040
H          2.35880       -0.22100       -2.70270
H          1.76880        1.26040       -1.94510
H          1.80800       -2.52310       -1.84120
H         -0.49260       -3.75310       -1.55360
H         -0.58690       -2.84990       -0.01060
H         -0.10490       -0.81720       -3.31970
