13
gdb 4402	3.85757	2.09468	1.35803	5.5615	67.38	-0.2093	-0.0388	0.1705	838.3976	0.097308	-394.81954	-394.812733	-394.811789	-394.850552	25.679
N          0.08290        1.32870        0.11190
C         -0.05070       -0.01590        0.03990
C         -1.22680       -0.72040        0.02110
C         -1.09200       -2.12690       -0.01460
N          0.03880       -2.77850       -0.03020
C          1.20780       -2.05600       -0.01070
N          2.39860       -2.48400       -0.01860
O          1.12740       -0.63360        0.01810
H          0.99520        1.71610       -0.06610
H         -0.71720        1.90960       -0.06850
H         -2.18690       -0.22620        0.03850
H         -1.99550       -2.73650       -0.03230
H          2.36250       -3.50160       -0.04220
