17
gdb 10037	3.43164	1.25135	0.98638	3.8927	74.12	-0.274	0.0312	0.3052	1191.834	0.140103	-326.715506	-326.706286	-326.705342	-326.749687	32.536
C          0.05790        1.56140        0.02170
C         -0.01100        0.03370       -0.01300
C         -1.45170       -0.52480        0.02170
C         -1.46370       -2.07310       -0.11330
C         -2.80160       -2.63520       -0.22970
C         -3.91450       -3.07470       -0.33450
C         -2.14170       -0.10690        1.24680
N         -2.65560        0.23240        2.22490
H          1.09710        1.90020       -0.01380
H         -0.46650        2.00140       -0.83340
H         -0.39550        1.95800        0.93470
H          0.46260       -0.34190       -0.92760
H          0.55020       -0.38810        0.82900
H         -2.01320       -0.10850       -0.82380
H         -0.87310       -2.33300       -1.00000
H         -0.94450       -2.51010        0.74800
H         -4.89650       -3.47070       -0.41530
