15
gdb 963	3.64667	3.22757	1.73951	1.4211	64.04	-0.1744	0.0523	0.2267	713.5505	0.126463	-304.73336	-304.72601	-304.725066	-304.764728	26.72
C         -0.06370        1.52580        0.10620
C         -0.00250        0.04090       -0.01080
C         -0.02640       -0.76400       -1.13350
N         -0.14370       -0.28490       -2.46610
C          0.03460       -2.12090       -0.69770
C          0.09650       -2.10830        0.67630
N          0.08830       -0.79960        1.08030
H          0.91320        1.98800        0.30610
H         -0.43880        1.94090       -0.83360
H         -0.74300        1.84580        0.90590
H          0.69060        0.20650       -2.76880
H         -0.29010       -1.05180       -3.11130
H          0.03140       -2.99850       -1.32740
H          0.14790       -2.91340        1.39130
H          0.12030       -0.48990        2.03540
