11
gdb 3873	7.40721	2.23329	1.71949	4.2508	47.77	-0.2128	0.035	0.2478	660.259	0.081192	-372.782655	-372.776571	-372.775627	-372.812166	22.591
N         -0.03410        1.33980        0.14240
C         -0.03720       -0.03430        0.02210
N         -1.11500       -0.79800       -0.06420
C         -0.57670       -2.05310       -0.07630
O         -1.34560       -3.14790       -0.15600
N          0.73300       -2.13800       -0.01500
N          1.07110       -0.79820        0.04430
H          0.72090        1.81240       -0.33460
H         -0.93300        1.73570       -0.09500
H         -2.25820       -2.83810       -0.18800
H          2.03110       -0.53500        0.18220
