17
gdb 19059	3.55022	2.30428	2.11779	1.2913	66.35	-0.212	0.0732	0.2852	733.0077	0.144939	-363.811306	-363.805119	-363.804175	-363.841212	25.531
O         -0.03350        1.46770       -0.02510
C          0.01670        0.04210        0.01030
C          0.64550       -0.54280        1.31330
N         -0.47110       -0.94600        2.18700
C         -1.36340        0.25340        2.44410
C         -2.25660       -0.16930        1.28940
C         -1.39250       -0.52180        0.07840
C         -1.50070       -1.47220        1.23560
H          0.86650        1.79110       -0.13300
H          0.53860       -0.33160       -0.88330
H          1.23740       -1.43530        1.07910
H          1.29460        0.17970        1.81870
H         -1.84840        0.14940        3.41910
H         -0.86480        1.22330        2.37300
H         -3.31950        0.00980        1.18180
H         -1.93590       -0.73160       -0.83540
H         -1.80330       -2.51140        1.21540
