17
gdb 13591	4.17172	1.3264	1.1253	4.1079	66.25	-0.2573	0.0006	0.2579	1076.244	0.140697	-400.998531	-400.989928	-400.988983	-401.031991	30.605
C          0.40760        1.36000        0.31710
C          0.08100       -0.06460       -0.06170
C          0.82740       -0.76570       -1.16760
N          1.01130       -1.13500        0.22090
C          2.14910       -1.08410        0.98720
O          2.19320       -0.56950        2.09060
C          3.37030       -1.81830        0.43570
O          4.40960       -1.79440        1.36840
H          1.43960        1.61540        0.06000
H         -0.26000        2.04820       -0.21070
H          0.28610        1.51110        1.39270
H         -0.95960       -0.35170        0.08150
H          0.32520       -1.49700       -1.79530
H          1.62680       -0.21190       -1.65590
H          3.07510       -2.84840        0.18350
H          3.67520       -1.33930       -0.50940
H          4.04690       -1.30530        2.12580
