16
gdb 4026	2.62891	1.75955	1.14087	3.2707	65.16	-0.2519	-0.038	0.2139	1032.5375	0.128956	-417.060638	-417.051394	-417.05045	-417.095408	32.426
C         -0.02250        1.63660        0.00740
C         -0.03690        0.09650        0.04560
C         -1.43490       -0.45120        0.01260
N         -2.12420       -0.71360       -1.03330
O         -1.44220       -0.44080       -2.21530
C         -2.12720       -0.69040        1.33670
N         -3.38020       -1.20310        1.25780
O         -1.56500       -0.42640        2.38580
H          1.00680        2.00580        0.03610
H         -0.49490        2.01040       -0.90510
H         -0.55450        2.04650        0.87020
H          0.51720       -0.30200       -0.80780
H          0.43230       -0.24670        0.96970
H         -2.07540       -0.70750       -2.89120
H         -3.80480       -1.36220        0.36030
H         -3.89860       -1.34190        2.10780
