14
gdb 21102	3.58834	2.0667	1.33168	3.0552	60.41	-0.2231	0.0156	0.2387	872.4911	0.108264	-412.032309	-412.024472	-412.023527	-412.064647	27.673
C         -0.00650        1.43640       -0.05150
N         -0.02770       -0.00530        0.04970
N         -0.24310       -0.78880       -1.05320
N         -0.20840       -2.02940       -0.66480
C          0.02610       -2.08050        0.67510
N          0.14030       -3.22330        1.49990
C          0.14150       -0.78610        1.13160
O          0.37050       -0.28580        2.35580
H          0.96350        1.83280        0.26130
H         -0.18440        1.68360       -1.09820
H         -0.78900        1.88020        0.57040
H          0.89690       -3.82610        1.18980
H         -0.70700       -3.78310        1.47150
H          0.45260       -1.05300        2.94150
