14
gdb 3556	6.06193	2.72982	2.41288	2.4533	55.93	-0.2343	0.0664	0.3007	584.0148	0.11481	-324.492974	-324.487496	-324.486552	-324.521858	21.745
O          0.02130        1.34040        0.10200
C          0.03200       -0.06180       -0.05720
C         -1.40910       -0.53890       -0.20480
C         -1.34530       -0.44050       -1.68110
C          0.22190       -0.54100       -1.52690
C         -0.01220       -2.05120       -1.39940
N         -1.45000       -1.78360       -1.04520
H          0.93050        1.65150        0.04770
H          0.66820       -0.54450        0.70030
H         -2.23930       -0.37350        0.46850
H         -2.02460       -0.06080       -2.43160
H          0.99470       -0.09820       -2.15410
H          0.01280       -2.58860       -2.35060
H          0.56110       -2.60570       -0.64580
