22
gdb 18592	3.15631	1.93515	1.58066	0.1323	80.43	-0.2737	0.0772	0.3509	938.3756	0.20301	-313.083586	-313.07605	-313.075106	-313.115147	30.418
C         -0.79860        1.36130        0.11020
C         -0.04540        0.04420       -0.01740
C          1.20260       -0.00250       -0.94640
C          2.02140       -0.70750        0.17480
C          3.22150        0.06900        0.73090
C          2.58870        1.20460        1.55940
C          1.35040        0.54790        2.20460
C          0.83110       -0.47430        1.17330
H         -0.13110        2.18790        0.37680
H         -1.28130        1.62430       -0.83800
H         -1.58130        1.30590        0.87550
H         -0.75510       -0.73910       -0.30460
H          1.08420       -0.56320       -1.87730
H          1.58940        0.99030       -1.20140
H          2.25700       -1.74980       -0.05000
H          3.81280       -0.58220        1.38700
H          3.89260        0.43430       -0.05410
H          3.27650        1.62800        2.29730
H          2.28530        2.02700        0.90060
H          1.65450        0.01150        3.11130
H          0.59260        1.27620        2.50960
H          0.41780       -1.35740        1.66640
