16
gdb 15554	3.1811	1.92161	1.30454	4.5108	70.69	-0.2281	-0.0039	0.2242	929.4873	0.131012	-342.789437	-342.781822	-342.780878	-342.821507	27.736
C         -0.04480        1.47650        0.02370
N         -0.05300        0.03600        0.16240
C         -1.35950       -0.62320        0.09960
C         -1.16110       -1.86130        0.92750
C         -0.01550       -1.80760        1.59560
C          0.69550       -0.50240        1.29730
C          2.12660       -0.67150        0.97220
N          3.25160       -0.79280        0.73850
H          0.98660        1.83900       -0.02370
H         -0.53770        1.75790       -0.91160
H         -0.55830        2.00000        0.85230
H         -2.17030        0.00010        0.52450
H         -1.64170       -0.83980       -0.94010
H         -1.88830       -2.66190        0.97220
H          0.38860       -2.53940        2.28160
H          0.65750        0.15720        2.18810
