17
gdb 15781	6.03101	1.08646	1.01413	2.3867	70.32	-0.2404	0.0379	0.2783	1153.3677	0.141118	-363.79721	-363.788685	-363.787741	-363.830368	31.362
O         -0.86030        0.70350        0.24250
C         -0.16600       -0.49840       -0.03470
C          0.89270       -0.28860       -1.14520
C          0.28070        0.22450       -2.36440
C         -0.29300        0.66890       -3.32410
C          0.48050       -0.97720        1.25010
C          1.02560       -0.00680        2.23050
N         -0.19880       -0.77490        2.53320
H         -1.20030        1.04120       -0.59450
H         -0.87160       -1.27040       -0.38370
H          1.64910        0.41570       -0.77970
H          1.40370       -1.23820       -1.34580
H         -0.76670        1.04940       -4.19530
H          0.96120       -1.94910        1.15190
H          1.89310       -0.26930        2.82910
H          0.91820        1.04840        2.00090
H         -0.99950       -0.16690        2.37050
