14
gdb 10998	4.45441	1.81115	1.50738	3.665	62.99	-0.2433	-0.071	0.1723	833.49	0.106525	-382.544641	-382.537812	-382.536868	-382.57545	25.872
C         -0.07950        1.54120        0.04600
C          0.13180        0.05530        0.00840
O         -0.72460       -0.75650        0.84380
C          0.69670       -0.76590        1.08550
C          1.40260       -1.94550        0.41830
O          2.06890       -2.78850        0.96600
C          1.13950       -1.79590       -1.04550
C          0.46050       -0.66650       -1.27850
H          0.80550        2.06880       -0.32390
H         -0.92960        1.82520       -0.58390
H         -0.28520        1.87020        1.06690
H          1.02950       -0.39370        2.04940
H          1.45820       -2.53450       -1.76950
H          0.13510       -0.30270       -2.24680
