24
gdb 15712	3.07786	1.46895	1.17047	0.0781	84.19	-0.2935	0.0761	0.3696	1165.2474	0.224805	-314.298143	-314.288975	-314.28803	-314.331832	34.691
C         -0.14430        1.74640       -0.27730
C         -0.22870        0.21950       -0.16910
C          0.70400       -0.51440       -1.13760
C          2.21620       -0.30500       -0.87520
C          2.93080       -1.54590       -1.48150
C          1.79910       -2.46570       -2.00570
C          0.54450       -2.05580       -1.20770
C          0.48270       -2.74630        0.16250
H          0.86130        2.10920       -0.04090
H         -0.38790        2.08500       -1.29090
H         -0.84220        2.23230        0.41190
H          0.00090       -0.08060        0.86100
H         -1.26350       -0.09720       -0.35680
H          0.48850       -0.13900       -2.14930
H          2.57740        0.63200       -1.30760
H          2.40460       -0.23980        0.20280
H          3.62480       -1.27210       -2.28100
H          3.52640       -2.05710       -0.71930
H          1.62820       -2.27550       -3.07150
H          2.03750       -3.52930       -1.90600
H         -0.36780       -2.31470       -1.75870
H          1.36190       -2.52130        0.77640
H         -0.40220       -2.44340        0.73020
H          0.43990       -3.83360        0.03920
