14
gdb 2451	5.97322	2.45241	2.02685	3.6599	56.92	-0.2373	0.0286	0.266	643.6915	0.115845	-324.608694	-324.603003	-324.602059	-324.638061	22.266
O          0.02060       -0.00500        0.16290
C         -0.03040        1.19640        0.03330
C         -1.29450        2.07680        0.00070
C         -0.78140        3.50460        0.05030
C          0.06790        3.93370        1.22950
C          0.72580        3.43410       -0.03520
N          1.05160        2.03980       -0.09250
H         -1.84830        1.87150       -0.92120
H         -1.94310        1.79860        0.83610
H         -1.31670        4.27290       -0.49320
H          0.11320        4.99730        1.43820
H          0.11190        3.29460        2.10610
H          1.30700        4.09580       -0.66710
H          1.97490        1.68480        0.10350
