9
gdb 21324	6.44755	1.62643	1.2988	2.3001	57.66	-0.2895	-0.1366	0.1529	811.6728	0.048552	-388.501028	-388.494972	-388.494028	-388.531571	20.81
N         -0.00160       -1.15410       -0.00290
C          0.01450        0.00190        0.00230
C         -0.02660        1.43470        0.01040
C         -1.23220        2.13610        0.03050
N         -1.22140        3.46020        0.03770
N         -0.04880        4.08660        0.02540
N          1.09040        3.42250        0.00650
N          1.13120        2.09850       -0.00130
H         -2.19900        1.64300        0.04090
