24
gdb 9414	5.53372	0.68035	0.63775	1.3466	82.54	-0.2614	0.0813	0.3427	1826.209	0.221455	-351.413174	-351.402237	-351.401293	-351.449833	38.544
C          0.00400        1.53510       -0.14500
C          0.01350        0.01350        0.03410
C          0.68890       -0.48770        1.32570
C         -0.06270       -0.02290        2.58170
C          0.83860       -2.02080        1.27990
C          1.68260       -2.62500        2.40730
C          1.90470       -4.12190        2.23370
O          2.67600       -4.58330        3.33360
H          1.02020        1.94380       -0.10410
H         -0.42410        1.81060       -1.11410
H         -0.58660        2.03860        0.62630
H         -1.01730       -0.36640        8.57440
H          0.52880       -0.43780       -0.82370
H          1.70180       -0.05750        1.35750
H         -1.08110       -0.43110        2.59730
H          0.43900       -0.34700        3.49770
H         -0.14140        1.06700        2.62560
H         -0.16220       -2.47720        1.28500
H          1.28960       -2.29540        0.31630
H          2.66250       -2.13280        2.45040
H          1.20990       -2.46560        3.38240
H          0.93180       -4.63890        2.18530
H          2.42020       -4.31320        1.27780
H          2.81870       -5.52800        3.22520
