15
gdb 20180	3.93134	2.64863	1.99304	3.6455	64.3	-0.2313	-0.0277	0.2036	691.691	0.120638	-362.575098	-362.569467	-362.568523	-362.604439	23.411
C         -0.05900        1.41850        0.01840
C          1.36200        2.08800        0.04530
C          2.20530        1.53290       -1.12730
C          2.80940        0.10160       -1.37150
O          2.25580       -0.96760       -0.54340
C          1.02090       -0.34210       -0.76420
N          0.24510       -0.01520        0.17010
C          1.50880        0.48110       -1.95820
H         -0.68030        1.74780        0.85330
H         -0.56960        1.68160       -0.91880
H          1.28170        3.17640       -0.05900
H          1.82020        1.88310        1.01710
H          2.75990        2.28060       -1.69190
H          3.78850       -0.07570       -1.79680
H          1.12800        0.53530       -2.96810
