17
gdb 3083	3.37741	2.26971	1.87259	0.8589	70.45	-0.2372	0.0506	0.2879	784.1515	0.146441	-272.545389	-272.537241	-272.536297	-272.57725	29.875
C         -0.11910        1.56320        0.07290
C          0.02400        0.06240       -0.03980
C          0.68970       -0.61810       -1.20620
C          1.27960        0.13350       -2.37780
C          1.37450       -0.62990        0.16320
C          2.56350        0.13440        0.39590
C          3.56770        0.76670        0.60020
H          0.77810        2.08770       -0.26180
H         -0.96640        1.92010       -0.52280
H         -0.29630        1.85450        1.11350
H         -0.80890       -0.48720        0.39160
H          0.25840       -1.57820       -1.47840
H          1.80690        1.03640       -2.06330
H          2.00060       -0.49400       -2.91220
H          0.49800        0.42370       -3.08860
H          1.34570       -1.57500        0.69810
H          4.45470        1.32030        0.78350
