16
gdb 16996	3.78851	2.32558	2.11475	1.9525	67.98	-0.222	0.0065	0.2285	721.6672	0.13222	-346.549168	-346.543192	-346.542248	-346.578797	24.691
C          0.02250        1.46430        0.04480
C          1.36080        0.76010       -0.06300
C          1.66610        0.03870        1.25590
O          0.35610       -0.60080        1.29120
C          0.06810       -0.03180        0.00140
C         -0.03800       -0.78540       -1.27040
C          0.99410       -0.47350       -2.06840
C          1.99510        0.48430       -1.42030
H         -0.24390        1.94840        0.97990
H         -0.32640        1.96260       -0.85270
H          2.46170       -0.71000        1.15880
H          1.84370        0.65250        2.14730
H         -0.85350       -1.45130       -1.52720
H          1.10510       -0.81640       -3.09340
H          2.13810        1.39000       -2.02300
H          2.98690        0.02280       -1.32510
