15
gdb 16884	4.01181	2.0396	1.56198	4.9356	60.88	-0.2541	0.0488	0.3028	805.3192	0.121623	-399.82939	-399.822945	-399.822001	-399.860031	24.878
O          0.08070        0.07010        0.35080
C          0.02160        1.22600        0.01730
N         -0.96870        2.08760        0.42850
C         -1.35350        3.31300       -0.26080
C         -0.12090        4.01950       -0.77490
C          1.10280        4.12920        0.11610
C          1.06690        3.14460       -1.01940
O          0.98970        1.75610       -0.77830
H         -1.68790        1.60350        0.94370
H         -2.02600        3.10380       -1.10710
H         -1.90670        3.94340        0.44520
H         -0.31650        4.81960       -1.48100
H          1.74170        4.99900        0.01420
H          1.02430        3.73310        1.12240
H          1.69950        3.30920       -1.88290
