18
gdb 15951	2.99649	1.90724	1.35001	0.659	78.08	-0.253	0.0462	0.2992	955.4004	0.153112	-310.611034	-310.603193	-310.602249	-310.643084	30.38
C         -0.28020       -0.96810       -0.72200
C         -0.17270        0.15460       -0.30220
C         -0.01180        1.50210        0.20140
C          0.09780        1.72750        1.74870
C          1.23740        2.75480        1.49780
C          1.36880        2.19630        0.07640
C          2.59590        1.56450       -0.50650
C          1.99400        2.80010       -1.14110
H         -0.38850       -1.95880       -1.08780
H         -0.79330        2.14870       -0.21590
H         -0.80440        2.08230        2.25010
H          0.45690        0.82700        2.25000
H          0.87720        3.78880        1.51280
H          2.11750        2.68240        2.14160
H          3.52930        1.67060        0.03750
H          2.47740        0.61780       -1.02350
H          1.48030        2.68390       -2.09060
H          2.51880        3.74410       -1.03060
