13
gdb 1650	5.18576	1.97257	1.44201	0.2161	52.22	-0.2405	-0.0288	0.2117	800.6407	0.102097	-377.845502	-377.837829	-377.836885	-377.877565	26.323
C          0.02080        1.43410       -0.01660
N         -0.10730       -0.00300       -0.11810
C         -1.25860       -0.66280        0.09490
O         -2.33840       -0.17480        0.39650
C         -1.07600       -2.18650       -0.08870
N         -2.22830       -2.84720        0.12450
O         -0.00110       -2.67780       -0.38950
H          0.74780        1.71310        0.75380
H          0.33720        1.87140       -0.96970
H         -0.95700        1.83600        0.25340
H          0.67950       -0.59080       -0.35950
H         -3.04250       -2.30420        0.36790
H         -2.26660       -3.84830        0.04130
