12
gdb 3762	4.06675	3.57273	1.92506	2.4733	51.72	-0.2197	0.0147	0.2344	620.2947	0.092139	-356.737615	-356.731384	-356.73044	-356.767779	21.938
C          0.08120        1.41240       -0.05120
N          0.08220       -0.02880       -0.00980
N          0.18450       -0.78160       -1.15860
C          0.15300       -2.00920       -0.74490
N          0.03540       -2.08990        0.61740
C         -0.01430       -0.79030        1.13850
O         -0.11560       -0.43690        2.29510
H          1.01180        1.78880       -0.48600
H         -0.76320        1.78320       -0.63960
H         -0.00910        1.75880        0.97960
H          0.21230       -2.86830       -1.39410
H         -0.01160       -2.91430        1.18980
