15
gdb 15031	2.34389	1.88284	1.11554	3.2196	66.45	-0.273	-0.0509	0.2221	1025.8983	0.117469	-362.666059	-362.657869	-362.656925	-362.699722	28.347
O          0.29010        0.00650        0.36280
C          0.15810        1.15490        0.04470
C          1.34830        2.11410       -0.12700
C          1.18340        2.92080       -1.33720
N          1.01500        3.55280       -2.29000
C          1.45670        2.99150        1.12200
C          2.07450        2.41120        2.36790
C          2.80800        3.47090        1.58540
H         -0.83850        1.62190       -0.10380
H          2.24600        1.49420       -0.22080
H          0.62270        3.67410        1.25100
H          1.63660        2.67950        3.32230
H          2.44310        1.39230        2.31940
H          3.67690        3.16990        1.01010
H          2.87320        4.47080        1.99830
