14
gdb 2853	6.1011	1.45162	1.28309	2.5204	55.33	-0.256	-0.0335	0.2226	894.8599	0.112729	-361.683811	-361.67648	-361.675536	-361.71584	25.506
O          0.00510        1.41090       -0.03920
C          0.05040        0.04120        0.31870
C         -1.31590       -0.59060        0.17550
N         -1.72150       -0.93650       -1.18360
C         -1.55800       -2.02690       -0.19820
C         -0.45130       -2.99050       -0.46470
O         -0.40260       -4.09350        0.01840
H         -0.26290        1.44600       -0.96460
H          0.78960       -0.50670       -0.28120
H          0.37260        0.00530        1.36420
H         -2.07070       -0.15400        0.82830
H         -2.70920       -0.75390       -1.33640
H         -2.44150       -2.49060        0.23400
H          0.32800       -2.61620       -1.16270
