20
gdb 10355	2.42313	1.56173	1.15206	3.3471	67.07	-0.2448	0.0635	0.3084	1104.7084	0.175298	-423.264064	-423.254168	-423.253224	-423.298709	35.924
C          0.63850       -0.00920       -1.29210
C         -0.06380        0.06300        0.06350
O         -1.38240       -0.50830       -0.01020
C          0.65460       -0.66840        1.21780
C          0.67330       -2.20180        1.06270
O         -0.58540       -2.80360        1.27050
C          2.07910       -0.15010        1.41970
O          2.05740        1.27110        1.45910
H          0.78910       -1.04060       -1.62320
H          0.03820        0.50370       -2.05320
H          1.60590        0.49840       -1.24980
H         -0.14770        1.11880        0.34850
H         -1.84050       -0.11920       -0.76120
H          0.08040       -0.45120        2.12680
H          1.09380       -2.47250        0.07850
H          1.34920       -2.62850        1.81460
H         -1.21190       -2.28850        0.74440
H          2.47620       -0.56530        2.35810
H          2.72860       -0.51020        0.60520
H          2.95640        1.58250        1.59810
