17
gdb 10087	3.03091	1.42516	1.18597	1.4529	61.51	-0.2562	0.022	0.2782	1042.7909	0.142216	-438.154027	-438.145266	-438.144322	-438.187837	31.137
O          0.11800        1.37020       -0.32560
C          0.05940       -0.01120       -0.00900
C         -1.38910       -0.51540        0.07380
C         -2.11640        0.01330        1.32010
O         -2.15310        1.44340        1.36050
N         -2.07870       -0.10580       -1.14550
C         -3.15660       -0.76460       -1.64150
O         -3.70260       -1.70330       -1.09780
H         -0.41600        1.81560        0.34950
H          0.59170       -0.53550       -0.80930
H          0.57310       -0.23630        0.93780
H         -1.39820       -1.61050        0.12500
H         -3.12790       -0.40640        1.35750
H         -1.57970       -0.30070        2.22090
H         -2.77770        1.72640        0.68340
H         -1.65400        0.64850       -1.66540
H         -3.49480       -0.34400       -2.60940
