19
gdb 7534	4.91518	1.0871	1.01906	2.544	72.72	-0.2452	-0.0265	0.2187	1199.3747	0.162786	-365.053702	-365.044371	-365.043427	-365.088059	33.178
C          0.00580        1.42840       -0.35160
C          0.03990       -0.01540        0.08860
N          1.34820       -0.69830        0.08960
C          0.62730       -0.51050        1.36850
C          1.29270        0.42560        2.35900
C         -0.02230       -1.73140        2.01130
C          0.98820       -2.65180        2.67030
O          0.87730       -3.11450        3.77590
H          0.88650        1.97540       -0.01050
H         -0.01760        1.48910       -1.44500
H         -0.88840        1.93220        0.03160
H         -0.80780       -0.59870       -0.27270
H          1.25180       -1.65330       -0.24730
H          1.81540        1.23590        1.85000
H          0.55350        0.85770        3.04250
H          2.03000       -0.11150        2.96640
H         -0.76690       -1.44750        2.76220
H         -0.53620       -2.31970        1.23690
H          1.87370       -2.89100        2.03630
