11
gdb 21840	8.21382	1.23761	1.08941	5.3774	54.4	-0.2631	-0.0247	0.2384	972.075	0.073102	-430.727172	-430.720695	-430.719751	-430.758605	22.35
O         -0.05400        0.00790        0.09050
C         -0.01270        1.18510       -0.06830
O          1.08410        1.91180        0.33090
C          1.03750        3.26360        0.19840
C          2.10270        4.09660       -0.04770
N          1.52440        5.32200       -0.03570
N          0.20600        5.25790        0.19330
N         -0.09350        3.99470        0.34440
H         -0.78850        1.81440       -0.52730
H          3.15070        3.92410       -0.21530
H          1.95630        6.22360       -0.16460
