17
gdb 14887	4.56602	1.41997	1.13233	4.718	76.68	-0.2589	-0.0339	0.225	1036.1453	0.144807	-326.772492	-326.765268	-326.764324	-326.80398	27.418
N          0.06770       -1.17840        0.00900
C         -0.00620       -0.02210        0.00840
C         -0.04820        1.40730        0.00820
C         -1.22950        2.04400        0.02640
C         -1.36470        3.53910        0.05780
C         -0.04220        4.24450        0.39090
C          1.12130        3.61140       -0.38100
C          1.28600        2.13100       -0.01280
H         -2.14440        1.45820        0.01750
H         -1.74410        3.87740       -0.91850
H         -2.14380        3.81500        0.77920
H         -0.12070        5.31280        0.16660
H          0.15070        4.16080        1.46790
H          0.93110        3.69730       -1.45840
H          2.05510        4.14640       -0.18170
H          1.76130        2.03070        0.97250
H          1.95730        1.63020       -0.71880
