18
gdb 7168	3.22729	1.18527	1.03347	4.0183	69.41	-0.2503	0.0161	0.2664	1180.7692	0.153058	-381.109981	-381.100893	-381.099949	-381.144259	32.106
C          0.30540        1.44070       -0.06070
N          0.12600       -0.00770       -0.00900
C          0.74570       -0.62400        1.17170
C          1.13510       -2.07540        0.88190
O          1.96930       -2.15680       -0.25080
C         -1.27930       -0.38150       -0.13790
C         -1.81100       -0.07400       -1.47100
N         -2.23940        0.17380       -2.51450
H          1.37260        1.67430       -0.04620
H         -0.11660        1.83190       -0.99040
H         -0.17810        1.96230        0.78460
H          1.66080       -0.06410        1.38400
H          0.10290       -0.55890        2.06820
H          1.69040       -2.47840        1.73570
H          0.23460       -2.70410        0.76590
H          1.58040       -1.55190       -0.89760
H         -1.38570       -1.45830        0.02410
H         -1.92170        0.11870        0.61170
