15
gdb 8637	2.52403	1.7752	1.38357	4.655	67.37	-0.2942	-0.0127	0.2815	958.8751	0.114992	-362.631215	-362.62183	-362.620886	-362.665186	32.768
C         -0.00320        1.56420        0.12430
C         -0.05680        0.04360       -0.01740
C          0.71520       -0.48190       -1.26090
O          2.07090       -0.03550       -1.24980
C          0.64490       -1.94810       -1.31560
C          0.62370       -3.14870       -1.29770
C          0.10810        0.07870       -2.49310
N         -0.40040        0.52510       -3.42850
H          1.03150        1.91220        0.16440
H         -0.49760        2.05870       -0.71690
H         -0.50910        1.87340        1.04280
H          0.39650       -0.44520        0.85220
H         -1.09030       -0.31240       -0.08170
H          2.57830       -0.68130       -0.74540
H          0.59820       -4.21120       -1.30440
