13
gdb 5504	3.36319	1.89834	1.21545	3.8071	62.65	-0.2165	-0.0476	0.1689	907.8786	0.09623	-398.628791	-398.621685	-398.620741	-398.660163	25.929
N          0.05650        1.40650        0.14460
C          0.02650        0.01530        0.02640
C         -1.05510       -0.81200        0.00720
O         -0.64660       -2.12740       -0.02640
C          0.68850       -2.13110       -0.03990
C          1.18540       -0.85350       -0.00390
C          2.59810       -0.49150        0.02640
O          3.51530       -1.28340       -0.02180
H          0.77360        1.84650       -0.41630
H         -0.83620        1.84360       -0.04140
H         -2.11910       -0.65070        0.02320
H          1.17780       -3.09050       -0.07080
H          2.79930        0.60060        0.10700
