14
gdb 3053	10.35111	1.17363	1.12739	4.49	56.09	-0.2613	0.0041	0.2654	1003.5229	0.113143	-361.698635	-361.691457	-361.690513	-361.731108	24.221
O          0.06110        0.14020        0.51090
C          0.18390        1.22860        0.03840
O          0.64890        2.28110        0.73860
C          0.77520        3.54300        0.06590
C          2.22160        3.91890       -0.10310
C          2.61080        5.34870        0.01010
N          3.00780        4.38490        1.04450
H         -0.07230        1.49020       -1.00800
H          0.26950        3.49720       -0.90810
H          0.25390        4.28080        0.68570
H          2.77980        3.27540       -0.78050
H          3.42380        5.73640       -0.59610
H          1.83030        6.07230        0.23420
H          2.41400        4.47350        1.86610
