22
gdb 6159	4.33956	1.13738	1.10742	1.043	79.1	-0.2425	0.0823	0.3249	1220.1653	0.198445	-350.195585	-350.186248	-350.185303	-350.229207	35.04
C         -0.81130        1.65450        0.00280
O         -0.38870        0.43760        0.57330
C         -1.11520       -0.67160        0.11140
C         -0.81250       -1.21710       -1.31410
C         -0.77140       -2.66120       -0.71310
C         -2.10190       -3.39830       -0.89410
C          0.39670       -3.53750       -1.15460
C         -0.64360       -2.01160        0.70380
H         -0.20020        2.44930        0.43760
H         -0.68050        1.66620       -1.09000
H         -1.87120        1.86080        0.22270
H         -2.19310       -0.50190        0.25880
H         -1.53870       -1.02550       -2.10870
H          0.17800       -0.88670       -1.64180
H         -2.25720       -3.67320       -1.94390
H         -2.12200       -4.31990       -0.30080
H         -2.95430       -2.78550       -0.58260
H          1.35280       -3.01940       -1.02780
H          0.43790       -4.46440       -0.56980
H          0.30430       -3.81710       -2.21100
H          0.39980       -1.92780        1.02040
H         -1.23150       -2.44400        1.51750
