13
gdb 423	4.90898	3.93292	2.38617	2.556	50.49	-0.2421	-0.0238	0.2182	545.7113	0.107628	-286.484904	-286.478789	-286.477845	-286.514513	21.712
C          0.05480        1.58700       -0.03080
C          0.02500        0.06840        0.04440
N          0.95320       -0.65640       -0.87450
C          1.48630       -1.52220        0.21070
C          0.75380       -0.61870        1.21560
O          0.76920       -0.47290        2.40030
H          1.08400        1.95240        0.01700
H         -0.39000        1.93910       -0.96670
H         -0.51050        2.01570        0.80260
H         -1.01420       -0.29510       -0.00250
H          0.48550       -1.16640       -1.61430
H          1.10600       -2.55340        0.23570
H          2.57900       -1.55070        0.28220
