20
gdb 15721	3.37207	1.58305	1.27804	1.7802	70.99	-0.2425	0.0678	0.3103	1033.6358	0.177023	-386.137767	-386.128945	-386.128	-386.171575	31.914
C          0.08290        1.43700       -0.06110
O         -0.22770        0.06840       -0.16950
C          0.52840       -0.61280       -1.13800
C          2.01780       -0.84710       -0.79650
C          2.42040       -2.09960       -1.62340
C          1.09590       -2.65660       -2.21950
C         -0.01220       -2.03010       -1.36220
O         -0.10820       -2.65430       -0.08830
H          1.10690        1.60770        0.30280
H         -0.02940        1.95870       -1.02590
H         -0.61810        1.87160        0.65590
H          0.45630       -0.08050       -2.10390
H          2.64220        0.02110       -1.02080
H          2.08910       -1.04640        0.27590
H          3.13380       -1.85620       -2.41510
H          2.90280       -2.84130       -0.98270
H          0.97370       -2.34350       -3.26280
H          1.04710       -3.75020       -2.20890
H         -0.98970       -2.01660       -1.86440
H         -0.34780       -3.57460       -0.23310
