14
gdb 10671	2.88583	2.12786	1.34986	3.2291	64.92	-0.2525	0.0072	0.2598	880.0094	0.106504	-378.696133	-378.688167	-378.687223	-378.728265	29.593
N          0.18350        0.96350       -0.76830
C         -0.02960        0.02020        0.17660
O          0.72440       -0.19250        1.11150
C         -1.29680       -0.80730        0.01070
C         -1.10240       -2.27730        0.27820
N         -1.77440       -1.44400        1.26000
C         -2.29040       -0.35720       -0.92660
C         -3.08360        0.03940       -1.73980
H          0.99060        1.55790       -0.68070
H         -0.50390        1.14950       -1.47910
H         -1.73790       -2.97880       -0.25300
H         -0.08270       -2.59560        0.47340
H         -1.09080       -1.18380        1.97390
H         -3.80760        0.37590       -2.44040
