22
gdb 6602	4.79503	1.28701	1.24006	0.0175	83.23	-0.2839	0.0915	0.3754	1119.1476	0.200188	-313.039774	-313.031296	-313.030352	-313.072311	33.022
C          0.02650        1.52410        0.00930
C         -0.06300       -0.00640        0.00320
C         -1.47920       -0.52670        0.01350
C         -2.59580       -0.27810       -1.04920
C         -3.25290       -1.19550        0.02650
C         -4.66140       -1.72600        0.03670
C         -1.92890       -2.01890        0.01190
C         -2.57720       -0.28610        1.09740
H          1.06830        1.85840        0.00130
H         -0.46920        1.95240       -0.86820
H         -0.45300        1.94430        0.89960
H          0.45430       -0.40230       -0.88100
H          0.47010       -0.41020        0.87430
H         -2.98810        0.74100       -1.12730
H         -2.43720       -0.71970       -2.03890
H         -4.85910       -2.34000       -0.84910
H         -4.84350       -2.34700        0.92100
H         -5.39150       -0.90880        0.04640
H         -1.71820       -2.59340       -0.89640
H         -1.70240       -2.60020        0.91200
H         -2.40140       -0.73510        2.08080
H         -2.96790        0.73230        1.18990
