18
gdb 10709	2.45344	2.04684	1.42049	2.8384	67.89	-0.2364	0.0282	0.2646	951.1726	0.153961	-381.139892	-381.131245	-381.130301	-381.173008	32.098
C         -0.23450        1.28620        0.45190
C          0.25600       -0.14220        0.18550
C          0.74740       -0.35370       -1.23350
C          0.52730       -1.67430       -1.89450
N         -0.21950       -0.49140       -2.34480
C          2.01600        0.40530       -1.58490
N          2.15010        0.69100       -2.90730
O          2.84290        0.68940       -0.73630
H          0.57910        2.00330        0.31410
H         -1.05330        1.56420       -0.22130
H         -0.59930        1.38450        1.47850
H          1.08140       -0.37610        0.86420
H         -0.54710       -0.86160        0.38890
H          1.25540       -2.05220       -2.60590
H          0.00440       -2.43680       -1.32310
H         -1.16820       -0.50720       -1.97870
H          1.34490        0.59100       -3.50570
H          2.93430        1.25230       -3.19420
