20
gdb 17921	2.94773	2.10475	2.02931	1.5358	72.25	-0.2475	0.0625	0.31	823.7608	0.180852	-349.026676	-349.019727	-349.018783	-349.057325	28.47
O          0.14410        1.36760       -0.14140
C          0.01780       -0.03040        0.01160
C          0.42590       -0.62260        1.38340
C         -0.66920       -0.05070        2.31430
C         -1.94220       -0.03550        1.40210
C         -1.42160       -0.60060        0.05950
C         -1.13310       -2.10540        0.23710
C          0.14120       -2.12060        1.15030
H         -0.35230        1.80230        0.55860
H          0.60060       -0.46060       -0.80890
H          1.44540       -0.40210        1.70430
H         -0.80050       -0.66330        3.21060
H         -0.41070        0.95550        2.66180
H         -2.75830       -0.63990        1.80770
H         -2.33840        0.97860        1.28050
H         -2.04960       -0.36030       -0.80020
H         -1.97940       -2.63370        0.68560
H         -0.93160       -2.58130       -0.72730
H          0.98210       -2.60420        0.64410
H         -0.01980       -2.65710        2.08980
