16
gdb 5315	4.70144	1.63867	1.25617	3.0273	68.3	-0.194	0.0207	0.2147	949.8519	0.131337	-379.939075	-379.931369	-379.930424	-379.971298	27.692
C          0.02700        1.39880        0.03560
N          0.33530       -0.01930       -0.01330
C          0.01040       -0.77080        1.19380
C          0.08370       -0.62040       -1.22510
C         -0.31670       -0.17870       -2.45260
N         -0.29990       -1.25150       -3.34280
C          0.07970       -2.25600       -2.63560
O          0.33910       -1.95820       -1.32580
H          0.42420        1.81710        0.96390
H          0.50700        1.90770       -0.80470
H         -1.05550        1.60490       -0.00460
H         -1.07200       -0.79140        1.40180
H          0.36490       -1.79670        1.09450
H          0.51720       -0.30840        2.04530
H         -0.61260        0.80980       -2.75850
H          0.20840       -3.28620       -2.92470
