14
gdb 21731	3.53787	1.91357	1.31326	5.1637	59.81	-0.2359	-0.0236	0.2123	885.8372	0.109339	-411.996617	-411.98946	-411.988516	-412.027953	26.778
N         -0.50600        1.24050        0.26830
C          0.24890        0.02530       -0.08580
C          0.91180       -0.52490        1.13600
N          2.15040       -0.92400        1.18010
O          2.36700       -1.36680        2.44790
N          1.23340       -1.22150        3.23370
C          0.33050       -0.71130        2.43580
N         -0.97470       -0.44820        2.77370
H          0.13860        2.00270        0.45720
H         -1.07850        1.53120       -0.51760
H         -0.47600       -0.70860       -0.45920
H          1.00500        0.16340       -0.87050
H         -1.15110       -0.40230        3.76690
H         -1.35500        0.32720        2.24210
