18
gdb 11786	4.12722	1.71342	1.56614	1.4277	72.09	-0.2203	0.0204	0.2407	881.2434	0.154842	-347.762492	-347.75537	-347.754426	-347.79371	28.306
O         -0.04790        1.41430       -0.15030
C          0.02380        0.00260        0.00910
C         -1.38140       -0.53790        0.00230
C         -2.30750       -0.51190       -1.26760
C         -3.09910       -1.56790       -0.42180
C         -1.69240       -2.07580        0.04720
C         -3.49640       -0.70630        0.78750
C         -2.37770       -0.03310        1.06370
H          0.84750        1.76460       -0.13280
H          0.60640       -0.46130       -0.80310
H          0.51610       -0.26610        0.95910
H         -2.80930        0.42880       -1.50080
H         -1.82850       -0.93400       -2.15810
H         -3.84130       -2.23350       -0.86080
H         -1.15770       -2.64780       -0.71920
H         -1.63330       -2.57240        1.01890
H         -4.46560       -0.67590        1.26470
H         -2.16680        0.71040        1.81840
