17
gdb 11974	2.72417	2.21999	1.79201	3.7974	67.72	-0.241	-0.0095	0.2315	835.8424	0.141157	-363.849634	-363.841778	-363.840833	-363.881321	29.574
C         -0.05270        1.59020       -0.05480
C          0.01680        0.06510       -0.04890
C         -1.35860       -0.55770        0.22800
C          0.76340       -0.65340       -1.18860
C          2.20450       -0.37830       -1.18700
N          1.69020       -1.38940       -0.21030
C          1.08240       -0.60220        0.85370
O          1.31800       -0.60960        2.02120
H          0.90870        2.05080       -0.29720
H         -0.78920        1.93990       -0.78650
H         -0.35710        1.95470        0.93130
H         -2.08040       -0.24010       -0.53230
H         -1.31390       -1.65100        0.22240
H         -1.72930       -0.23790        1.20580
H          0.27830       -1.21600       -1.97820
H          2.81810       -0.83230       -1.95830
H          2.59070        0.56210       -0.80290
