16
gdb 10773	2.8955	1.99397	1.49579	1.0931	60.52	-0.2578	-0.0365	0.2213	870.1778	0.128507	-420.873592	-420.865094	-420.864149	-420.906263	30.717
C         -0.13220        1.43800       -0.00740
C         -0.03210       -0.07940        0.00270
C          1.12480       -0.65610       -0.92060
O          1.61760        0.07360       -1.99760
C          1.94210       -0.60830        0.36280
O          3.00990       -0.08230        0.56200
C          0.72190       -0.66810        1.27090
O          0.79780        0.04910        2.46050
H          0.83890        1.91140        0.17370
H         -0.49380        1.79070       -0.97650
H         -0.81550        1.78110        0.77340
H         -0.99970       -0.54980       -0.17780
H          0.87170       -1.67070       -1.24470
H          2.38680        0.56390       -1.67800
H          0.37190       -1.68560        1.47290
H          1.62920        0.54160        2.44050
