19
gdb 11423	3.74232	1.42833	1.184	2.4552	71.49	-0.2103	-0.017	0.1933	1067.1146	0.16556	-365.079339	-365.071177	-365.070233	-365.112375	30.327
C          0.29110        1.30100        0.30160
C         -0.10290       -0.17470        0.25620
N         -1.50260       -0.36020       -0.14470
C         -1.82390       -1.74090       -0.56230
C         -2.22930       -2.50670        0.71040
C         -2.82450       -1.40360        1.59000
O         -3.46600       -1.54190        2.59750
C         -2.45920       -0.06260        0.92370
H          1.35340        1.40330        0.54480
H          0.10320        1.77320       -0.66670
H         -0.27360        1.85250        1.05990
H          0.51640       -0.68130       -0.49170
H          0.13160       -0.64790        1.22930
H         -2.66860       -1.70770       -1.26230
H         -0.97750       -2.18320       -1.09110
H         -2.94380       -3.31940        0.56210
H         -1.35700       -2.92460        1.22730
H         -2.07000        0.64510        1.65850
H         -3.38380        0.37260        0.51660
