16
gdb 3032	10.5165	1.14027	1.10433	1.2041	67.34	-0.2382	0.0571	0.2953	1058.3143	0.135577	-288.572843	-288.565246	-288.564302	-288.604811	27.406
C         -0.06540       -1.18270        0.02270
C         -0.01270        0.01600        0.09410
C          0.08670        1.46750        0.16830
C          1.47660        1.98430       -0.24350
N          1.50610        3.43890       -0.17610
C          1.91630        4.01740        1.10150
C          2.82600        4.05020       -0.07640
H         -0.12660       -2.24090       -0.03700
H         -0.66560        1.93490       -0.47770
H         -0.13290        1.80370        1.18960
H          2.24580        1.51530        0.39510
H          1.68470        1.68320       -1.27570
H          1.38070        4.90940        1.41250
H          2.17800        3.33570        1.91000
H          3.69260        3.39110       -0.05140
H          2.96660        4.96640       -0.64260
