17
gdb 7754	3.60964	1.74779	1.2261	3.0307	71.19	-0.217	-0.0037	0.2133	973.64	0.143805	-363.920518	-363.913058	-363.912114	-363.952167	28.565
C         -0.02740        1.57780       -0.00230
C          0.01480        0.04530        0.03110
C          0.69100       -0.52200       -1.23180
C          0.98140       -2.01670       -1.17720
O          0.96970       -2.75020       -2.14370
N          1.33310       -2.47220        0.07720
C          1.30490       -1.68430        1.23310
C          0.71340       -0.48930        1.25920
H          0.98500        1.99610       -0.02360
H         -0.56130        1.93770       -0.88760
H         -0.53620        1.97530        0.88190
H         -1.02720       -0.31480        0.04860
H          0.10450       -0.33190       -2.13300
H          1.66350       -0.02610       -1.36770
H          1.62020       -3.43780        0.12580
H          1.79050       -2.12670        2.09510
H          0.70930        0.08960        2.17530
