16
gdb 2866	6.2489	1.33991	1.27851	1.4757	56.97	-0.2542	0.0648	0.319	947.205	0.137167	-362.870426	-362.86265	-362.861706	-362.902952	27.619
O         -0.07280        1.25180       -0.73300
C          0.05800        0.15460        0.15540
C         -1.26570       -0.55690        0.31990
N         -1.70900       -1.33320       -0.85860
C         -1.45720       -2.02830        0.42260
C         -0.36140       -3.06910        0.38060
O         -0.78360       -4.20820       -0.35030
H         -0.41010        0.88500       -1.55870
H          0.83220       -0.54370       -0.18900
H          0.38520        0.57050        1.11430
H         -2.02390        0.05480        0.80680
H         -2.70680       -1.21370       -1.00700
H         -2.33730       -2.35430        0.97500
H          0.55850       -2.64510       -0.04320
H         -0.13330       -3.41860        1.39310
H         -1.03080       -3.88500       -1.22480
