19
gdb 12013	3.23172	1.98736	1.74141	2.7482	70.01	-0.2287	0.0659	0.2946	856.7408	0.16622	-365.04713	-365.039553	-365.038609	-365.078263	30.411
C         -0.01850        1.54370       -0.01270
C          0.04420        0.01630       -0.01860
O         -1.27740       -0.53550        0.03390
C          0.83480       -0.58410       -1.20820
C          1.35830       -1.92840       -0.65510
N          1.50320       -1.79280        0.80880
C          2.23240       -0.58400        1.21500
C          0.74820       -0.58590        1.19080
H          0.98210        1.98430        0.01890
H         -0.51910        1.91620       -0.91500
H         -0.58210        1.89640        0.85600
H         -1.78160       -0.15590       -0.69370
H          0.19000       -0.71390       -2.08170
H          1.65140        0.08040       -1.50670
H          0.62560       -2.72190       -0.82960
H          2.30720       -2.23920       -1.10290
H          2.75070       -0.66940        2.16550
H          2.77140       -0.01040        0.46450
H          0.17250       -0.62890        2.11050
