14
gdb 10570	2.64571	1.90412	1.33498	5.0115	67.59	-0.302	-0.0133	0.2887	929.007	0.106717	-341.600674	-341.592758	-341.591814	-341.63289	28.285
C         -0.08000        1.52740       -0.01310
C          0.03050        0.02190       -0.00320
C          1.32360       -0.67580       -0.23890
C          0.72180       -0.70310        1.17860
C          1.36060        0.09280        2.19620
N          1.87560        0.75310        2.99330
C          0.13610       -1.93900        1.63350
N         -0.34770       -2.93460        1.96670
H          0.82130        2.00150        0.38370
H         -0.22640        1.87900       -1.03920
H         -0.93140        1.86270        0.58610
H         -0.85500       -0.50880       -0.33960
H          1.33260       -1.62280       -0.76480
H          2.22050       -0.07640       -0.34660
