13
gdb 5477	3.63795	1.90523	1.25159	1.9591	66.13	-0.2123	-0.0399	0.1724	886.0735	0.097888	-394.839986	-394.833076	-394.832132	-394.871036	25.606
N          0.09110        1.39370        0.13610
C          0.00340        0.02640        0.04250
C         -1.13480       -0.78710        0.01450
N         -0.62110       -2.08270       -0.02010
C          0.71630       -1.98890       -0.00970
N          1.13790       -0.73270        0.02580
C         -2.54560       -0.55220        0.01920
O         -3.38440       -1.44050       -0.01150
H          0.99790        1.75650       -0.11900
H         -0.67910        1.92820       -0.23320
H         -1.20550       -2.90300       -0.04660
H          1.36310       -2.85360       -0.03180
H         -2.84320        0.51860        0.05470
