15
gdb 19383	3.18131	2.32048	1.60406	2.5137	66.68	-0.2456	-0.0188	0.2268	805.1804	0.119716	-362.620953	-362.614312	-362.613368	-362.651661	25.583
O          0.07130        0.05540       -0.18020
C         -0.01020        1.23630        0.02300
C         -1.12790        2.23980       -0.00590
C         -0.96290        3.24150        1.13050
C         -0.05370        3.37230       -0.03860
C          1.04950        2.33210        0.09290
C          2.36290        2.31860        0.77670
N          2.27320        2.27930       -0.69270
H         -2.05920        2.14700       -0.54880
H         -1.77500        3.95800        1.19910
H         -0.57180        2.91640        2.09050
H         -0.03070        4.22020       -0.70870
H          2.76580        3.24280        1.18190
H          2.64480        1.41350        1.30910
H          2.40640        1.32550       -1.02790
