18
gdb 12932	3.36183	1.55016	1.29886	0.9779	67.44	-0.245	0.0723	0.3174	988.1457	0.153393	-384.896591	-384.888422	-384.887478	-384.929052	30.89
O          0.13120        1.27890       -0.35550
C          0.06550       -0.02600        0.20580
C         -1.32600       -0.60940        0.12620
C         -1.93860       -1.21240       -1.13350
C         -0.90950       -2.04090       -1.91590
C         -0.68830       -2.93750       -0.65350
C         -1.69870       -2.06650        0.10790
O         -2.65800       -2.58990        0.95820
H         -0.25430        1.22610       -1.23660
H          0.79950       -0.69620       -0.26490
H          0.36760        0.09010        1.25270
H         -2.06610       -0.02700        0.67230
H         -2.87520       -0.83700       -1.52730
H         -1.35380       -2.59380       -2.74570
H         -0.03340       -1.50340       -2.29210
H         -1.08350       -3.94490       -0.80080
H          0.32530       -3.01200       -0.24700
H         -2.33610       -2.51990        1.86340
