14
gdb 21951	7.64773	1.08241	0.95945	2.4366	58.65	-0.2789	-0.0239	0.255	1129.3685	0.1076	-415.855848	-415.848338	-415.847394	-415.88923	25.586
O         -0.08640        1.44170        0.02830
C         -0.08190        0.07530        0.40470
C         -1.14260       -0.60900       -0.45240
C         -1.25590       -2.06510       -0.16750
N         -0.58490       -2.78050        0.68870
C         -1.12460       -4.02890        0.49700
N         -2.06090       -4.10020       -0.40630
O         -2.15540       -2.77680       -0.86000
H          0.57490        1.90030        0.55420
H          0.89530       -0.39650        0.23030
H         -0.32280       -0.05940        1.46850
H         -2.11430       -0.12940       -0.28750
H         -0.90860       -0.46310       -1.51330
H         -0.80920       -4.90410        1.04630
