14
gdb 11228	5.13379	1.40769	1.20374	1.8531	64.73	-0.2309	0.0376	0.2685	969.4278	0.107775	-378.705633	-378.698088	-378.697143	-378.738031	27.728
N          0.02070        1.40290       -0.22790
C         -0.04160        0.04450       -0.10220
N         -1.04970       -0.63780        0.28020
C         -0.66200       -2.05060        0.12840
C          0.85050       -1.99290       -0.27530
O          1.09670       -0.59230       -0.49290
C         -0.88830       -2.83940        1.33750
C         -1.04810       -3.51210        2.32020
H          0.94230        1.80440       -0.15330
H         -0.70530        1.89690        0.26640
H         -1.25240       -2.49770       -0.68350
H          1.50540       -2.34760        0.52460
H          1.07230       -2.53270       -1.19820
H         -1.20410       -4.09720        3.19250
