14
gdb 17203	5.47303	1.61771	1.46472	2.0828	57.76	-0.2591	0.0534	0.3125	838.0189	0.106269	-419.562164	-419.555806	-419.554862	-419.592452	25.101
O          0.11300        1.43470       -0.07330
C          0.09560        0.05090       -0.07930
C          0.04040       -0.68130        1.30160
O         -1.34920       -0.14690        1.44700
C         -1.29260       -0.65900        0.04260
C         -0.55820       -1.88800        0.57870
C         -0.10900       -3.17960        0.08020
O         -1.09920       -3.04420        1.13100
H         -0.52620        1.69210        0.60820
H          0.79900       -0.31410       -0.83050
H          0.69900       -0.61730        2.16640
H         -2.19220       -0.56900       -0.56420
H         -0.49000       -3.56410       -0.86410
H          0.84850       -3.58650        0.40010
