20
gdb 11622	4.68577	1.11117	0.95827	1.4031	72.42	-0.2461	0.087	0.3331	1256.8213	0.174647	-386.112445	-386.103161	-386.102217	-386.147212	33.262
C          0.39380        1.27840        0.04040
C         -0.10860       -0.16140       -0.00010
C         -0.23130       -0.77040        1.39780
O         -1.35950       -0.12110       -0.69260
C         -1.81350       -1.32480       -1.27190
C         -2.82920       -2.06190       -0.42830
C         -3.10540       -3.48680       -0.64850
O         -2.35380       -3.05450        0.48620
H          1.37310        1.33110        0.52520
H          0.47970        1.68480       -0.97080
H         -0.30360        1.90640        0.60390
H          0.59510       -0.76930       -0.59310
H          0.74080       -0.75370        1.90230
H         -0.93990       -0.19180        2.00010
H         -0.57850       -1.80470        1.35510
H         -2.29730       -1.05100       -2.22010
H         -0.97850       -2.00300       -1.50310
H         -3.62580       -1.43410       -0.02770
H         -4.09440       -3.88790       -0.43300
H         -2.53920       -4.03500       -1.40130
