16
gdb 2780	4.75231	1.91386	1.45643	2.498	61.68	-0.242	-0.0236	0.2184	846.4641	0.136226	-325.773675	-325.766275	-325.765331	-325.805427	26.494
C          0.01420        1.59640        0.06810
C          0.25670        0.09690       -0.12220
C          0.66550       -0.59780        1.17240
N         -0.39880       -0.70390        2.21690
C         -0.18880       -2.16540        2.40090
C          0.73580       -2.13580        1.17310
O          1.25900       -2.95620        0.48110
H          0.92230        2.10680        0.40880
H         -0.30220        2.06700       -0.86750
H         -0.76980        1.76670        0.81260
H         -0.65340       -0.38160       -0.50140
H          1.04410       -0.07640       -0.86540
H          1.61110       -0.17220        1.54610
H         -0.21160       -0.15950        3.04990
H          0.34670       -2.46340        3.31320
H         -1.09580       -2.77370        2.31450
