17
gdb 10034	3.46671	1.39404	1.12366	1.5324	72.23	-0.2499	0.0072	0.257	1093.4347	0.138513	-363.816396	-363.806705	-363.805761	-363.851285	33.244
C          1.47510        0.27400       -0.31360
O          0.25700       -0.11120        0.32740
C          0.27140       -0.16710        1.70260
C          0.18620       -1.58860        2.22870
C          1.30640       -2.42680        1.81010
C          2.23250       -3.11680        1.47700
N          0.25550        0.81100        2.49830
C          0.21800        2.17150        1.99140
H          2.26940       -0.44580       -0.09090
H          1.26870        0.26850       -1.38550
H          1.79660        1.27750       -0.01510
H          0.12130       -1.54290        3.31860
H         -0.74950       -2.02780        1.85690
H          3.04620       -3.73410        1.18670
H          1.21280        2.62670        2.07310
H         -0.12280        2.25040        0.95210
H         -0.45000        2.75950        2.62840
