20
gdb 12926	3.31887	1.67979	1.39112	1.0143	75.77	-0.235	0.0901	0.3251	1000.8202	0.176329	-348.969186	-348.960697	-348.959753	-349.001841	31.69
C          0.15280        1.07290       -0.39110
O         -0.06970        0.00150        0.50280
C         -1.30850       -0.61050        0.31310
C         -1.55250       -1.63990       -0.75800
C         -0.28530       -2.47050       -0.98900
C         -0.25440       -2.83670        0.52630
C         -1.53400       -2.01430        0.75480
C         -2.64080       -2.41770        1.68740
H          1.15060        1.46680       -0.18330
H          0.10420        0.74530       -1.43940
H         -0.58350        1.87900       -0.24780
H         -2.15590        0.05790        0.48730
H         -2.39360       -1.56690       -1.43940
H         -0.46190       -3.34150       -1.62340
H          0.58080       -1.92530       -1.37510
H         -0.41700       -3.90390        0.69740
H          0.62270       -2.51380        1.09240
H         -2.31670       -2.35180        2.73360
H         -3.51850       -1.77290        1.57290
H         -2.95870       -3.45070        1.50480
