15
gdb 9065	5.68997	0.90861	0.81192	3.3728	63.13	-0.2713	-0.0447	0.2266	1318.6587	0.115432	-399.80286	-399.793854	-399.79291	-399.837684	29.935
C          0.12440        1.37570        0.14200
C         -0.00520       -0.14280        0.05110
O         -1.34520       -0.61850        0.04040
C         -2.00430       -0.52660        1.28040
C         -3.28060       -1.24310        1.19430
N         -4.29170       -1.79850        1.15680
C          0.62640       -0.69750       -1.22540
O          1.62630       -0.25240       -1.72060
H          1.16350        1.65060       -0.05390
H         -0.50860        1.85310       -0.61130
H         -0.15490        1.75170        1.12960
H          0.54180       -0.61310        0.88980
H         -1.40370       -0.97590        2.08820
H         -2.21020        0.51530        1.56610
H          0.08130       -1.56880       -1.64640
