17
gdb 13094	4.20221	1.28876	1.08051	3.1547	67.05	-0.2556	0.016	0.2716	1096.641	0.141032	-400.974748	-400.966331	-400.965387	-401.008942	29.255
C         -0.19790        1.44260        0.30840
C          0.12600       -0.02510        0.12080
O          1.15810       -0.25440       -0.87280
C          2.05380       -0.82790        0.09850
C          0.99820       -0.71660        1.20700
O          1.41080        0.08740        2.29460
C          0.87790       -0.16590        3.50910
N          1.12850        0.59960        4.47850
H          0.68300        2.00260        0.62910
H         -0.55910        1.85940       -0.63640
H         -0.98150        1.57120        1.06260
H         -0.77880       -0.59250       -0.13540
H          2.36960       -1.84200       -0.17170
H          2.93690       -0.20380        0.27890
H          0.59940       -1.66960        1.56870
H          0.25610       -1.07210        3.53070
H          0.67350        0.25490        5.32110
