12
gdb 21020	6.77366	1.3948	1.16515	7.2668	63.49	-0.2813	-0.0417	0.2396	950.4502	0.086018	-373.738124	-373.731296	-373.730352	-373.769613	23.522
C          0.03490        1.40530        0.08110
N         -0.00400       -0.04220       -0.00450
C         -0.20240       -0.83470       -1.08200
N         -0.16440       -2.10550       -0.73740
C          0.06740       -2.03220        0.60400
N          0.17210       -0.79820        1.09330
C          0.19170       -3.18220        1.43860
N          0.29150       -4.11810        2.10970
H          1.00830        1.72910        0.45520
H         -0.13000        1.81760       -0.91530
H         -0.74620        1.75830        0.75770
H         -0.36670       -0.44510       -2.07530
