19
gdb 9639	3.85934	1.18408	1.07352	4.3969	77.14	-0.277	0.0389	0.3159	1182.6574	0.164492	-327.942662	-327.933579	-327.932635	-327.976279	32.938
C          0.19970        1.54440        0.12550
C         -0.18150        0.07780       -0.11340
C          0.57220       -0.51640       -1.28600
C          1.92250       -1.15420       -1.12930
C          0.72330       -2.02590       -1.48980
C          0.18430       -3.03510       -0.48600
C          0.65170       -2.47410       -2.85970
N          0.58430       -2.83990       -3.95570
H          1.26870        1.64420        0.33970
H         -0.02150        2.15800       -0.75410
H         -0.35530        1.96070        0.97130
H          0.01550       -0.49940        0.79630
H         -1.26050        0.00520       -0.29870
H          0.43350        0.03340       -2.21350
H          2.67960       -0.98550       -1.88570
H          2.30840       -1.28570       -0.12310
H          0.31370       -2.67770        0.53720
H         -0.88030       -3.22580       -0.65100
H          0.71640       -3.98640       -0.57940
