14
gdb 10892	3.22444	1.97207	1.53329	3.3734	58.15	-0.2353	-0.039	0.1963	838.8629	0.105079	-419.647004	-419.639506	-419.638562	-419.678729	27.543
C         -0.09010        1.50480        0.07240
C          0.16530        0.03800       -0.03020
O         -0.74710       -0.87720        0.59180
C          0.65320       -0.94100        0.98020
C          1.28170       -1.78610       -0.11900
O          1.99060       -2.74560       -0.14710
C          0.74120       -0.77810       -1.21060
O         -0.14810       -1.20370       -2.19660
H          0.82050        2.06980       -0.14880
H         -0.85760        1.80720       -0.64760
H         -0.43600        1.76690        1.07540
H          0.88540       -0.81770        2.03100
H          1.58700       -0.29250       -1.71010
H         -0.89660       -1.60560       -1.73740
