17
gdb 20724	3.32716	1.94569	1.25216	1.8422	71.78	-0.1984	0.0344	0.2328	969.6204	0.142826	-360.073355	-360.064518	-360.063574	-360.106747	31.279
C         -0.00870        1.46600       -0.01990
C          0.01560       -0.02750        0.05620
N          0.01320       -0.77260       -1.04810
N          0.03280       -2.04390       -0.59900
C          0.02520       -2.14530        0.75740
C          0.01900       -3.43710        1.50120
C          0.02390       -0.84110        1.22040
N         -0.01230       -0.45260        2.58460
H          0.80020        1.91220        0.57090
H          0.10700        1.78520       -1.05770
H         -0.95190        1.88200        0.35630
H          0.04330       -2.79490       -1.26730
H          1.01640       -3.88930        1.57240
H         -0.33850       -3.25940        2.51910
H         -0.64230       -4.17260        1.03030
H          0.89070       -0.55430        3.03700
H         -0.28610        0.51820        2.67900
