16
gdb 7920	3.5521	1.78012	1.2418	0.5002	67.66	-0.256	-0.0061	0.2499	952.3938	0.132144	-379.990533	-379.983043	-379.982099	-380.022645	27.87
C         -0.22650        1.53640        0.01410
C          0.10110        0.04330       -0.00340
C          0.92140       -0.46310       -1.20730
C          1.95070       -1.41930       -0.62710
N          2.68360       -2.19220       -1.31470
N          1.91580       -1.23990        0.75670
C          0.92800       -0.38080        1.21600
O          0.76480       -0.06140        2.36770
H          0.68210        2.13850       -0.09160
H         -0.90300        1.79680       -0.80490
H         -0.70150        1.80540        0.96060
H         -0.83610       -0.52360        0.07080
H          0.32960       -0.96160       -1.97620
H          1.45370        0.36190       -1.69380
H          3.31850       -2.73850       -0.72960
H          2.54850       -1.69620        1.39800
