18
gdb 19493	3.18408	1.88869	1.73867	0.8859	76.76	-0.2384	0.0491	0.2875	863.442	0.155356	-310.640395	-310.633145	-310.6322	-310.671627	28.663
C          0.12840       -1.30340        0.06750
C          0.12180       -0.09950        0.07960
C          0.06550        1.33250        0.06130
C          0.44850        2.22200        1.24170
C          1.26990        1.62850        2.37580
C          2.50470        0.97230        1.70520
C          2.65810        1.65700        0.32220
C          1.29200        2.23930       -0.00610
H          0.13920       -2.36490        0.06050
H         -0.78050        1.71430       -0.50530
H         -0.23760        3.03040        1.47070
H          1.57410        2.44300        3.04330
H          0.70530        0.91130        2.98040
H          3.40510        1.08240        2.31550
H          2.33280       -0.09660        1.57420
H          3.38040        2.48000        0.37130
H          3.01780        0.95870       -0.44050
H          1.23830        3.06060       -0.71260
