16
gdb 12945	2.61812	2.20222	1.68023	4.168	64.76	-0.2703	0.0038	0.2741	855.2524	0.129252	-383.747015	-383.739199	-383.738254	-383.778976	28.625
C          0.02490        1.55370        0.01160
C          0.09790        0.04400        0.05510
C          1.34010       -0.74790       -0.15410
O          2.48590       -0.01800        0.36750
C          1.96410       -0.11910        1.65410
O          2.48730        0.20300        2.67070
C          0.68820       -0.79570        1.21270
C         -0.05990       -1.84300        1.98350
H          0.96640        2.00810        0.32680
H         -0.18640        1.89330       -1.00780
H         -0.77330        1.92440        0.66180
H         -0.78340       -0.46030       -0.34180
H          1.54610       -1.52170       -0.88090
H         -0.60010       -1.39500        2.82390
H         -0.79310       -2.34720        1.34690
H          0.61850       -2.60030        2.38840
