20
gdb 6834	3.24151	1.41113	1.27435	2.3791	70.78	-0.2389	0.069	0.3079	1066.5314	0.174877	-386.124473	-386.115098	-386.114154	-386.158921	33.914
C         -0.21980        1.57060       -0.01760
C         -0.00690        0.06080        0.03890
C         -1.24850       -0.69400       -0.42090
O          1.14770       -0.31660       -0.76860
C          1.85470       -0.83350        0.37640
C          0.67340       -0.52900        1.31470
C          0.95240        0.35870        2.51140
O          1.69260       -0.42600        3.43800
H          0.68840        2.11410        0.25380
H         -0.48920        1.86230       -1.03780
H         -1.03010        1.88440        0.64930
H         -1.52000       -0.39610       -1.43890
H         -1.06790       -1.77250       -0.41760
H         -2.09910       -0.48230        0.23680
H          2.12150       -1.88940        0.25470
H          2.76830       -0.26270        0.58970
H          0.16760       -1.42980        1.67200
H          1.52400        1.24850        2.20680
H          0.00520        0.70990        2.95250
H          1.93410        0.13350        4.18200
