22
gdb 9556	2.76917	1.73294	1.47281	1.0081	77.96	-0.2408	0.0817	0.3225	1018.9716	0.198548	-350.194741	-350.185383	-350.184439	-350.228114	35.158
C          0.14800        1.47170       -0.08650
O          0.48040        0.10430       -0.16910
C          0.73480       -0.54460        1.06260
C          2.00650       -0.02230        1.73110
C         -0.46960       -0.67690        2.04700
C         -0.15030       -2.19090        2.17720
C          0.74320       -2.10000        0.90400
C          0.08210       -2.63140       -0.36360
H          0.99680        2.09690        0.22550
H         -0.15940        1.78450       -1.08780
H         -0.68640        1.65250        0.60740
H          1.90360        1.02020        2.04880
H          2.24310       -0.61260        2.62180
H          2.85150       -0.09280        1.03840
H         -0.44460       -0.07340        2.95800
H         -1.41820       -0.50150        1.53300
H          0.41510       -2.42770        3.08210
H         -1.00040       -2.87480        2.11490
H          1.74010       -2.54130        1.00760
H         -0.92780       -2.23060       -0.49190
H          0.65590       -2.36000       -1.25380
H          0.00970       -3.72370       -0.31830
