16
gdb 16416	3.53919	2.29603	1.8696	2.2451	64.08	-0.2433	-0.0053	0.238	753.9291	0.132777	-383.718241	-383.712015	-383.711071	-383.748286	25.418
O          0.05090        1.39830       -0.04680
C          0.04960       -0.02370       -0.04250
C          0.76090       -0.55990        1.18920
C          0.04800       -1.23310        2.09370
C         -1.41440       -1.43950        1.76240
C         -1.52810       -2.02870        0.33280
C         -1.39960       -0.53920       -0.04180
O         -1.96020       -0.17400        1.25690
H         -0.47960        1.65080        0.72110
H          0.56650       -0.32570       -0.96110
H          1.81210       -0.32080        1.31490
H          0.46910       -1.63480        3.00950
H         -2.01500       -1.85070        2.57520
H         -0.75870       -2.72930        0.00580
H         -2.52700       -2.41110        0.11380
H         -1.97570       -0.12950       -0.87500
