13
gdb 11189	5.31069	1.43069	1.19552	4.8037	60.28	-0.2682	0.0098	0.278	943.7013	0.096147	-398.609447	-398.602419	-398.601475	-398.640965	25.717
O         -0.08240       -0.06790        0.07800
C         -0.08610        1.12890        0.05570
N         -1.11390        1.98740        0.39430
C         -0.85110        3.33140       -0.07750
C          0.69760        3.28230       -0.14300
O          0.99940        1.88240       -0.31270
C          1.27520        4.07670       -1.21270
C          1.73700        4.76140       -2.08400
H         -2.04350        1.59950        0.39930
H         -1.27850        3.53100       -1.06830
H         -1.19690        4.09810        0.62000
H          1.11810        3.59460        0.82160
H          2.15480        5.35910       -2.85680
