19
gdb 10954	4.91911	1.33775	1.21754	2.6488	71.37	-0.2365	0.075	0.3115	1048.4871	0.165303	-365.016753	-365.008553	-365.007609	-365.049149	31.109
C          0.26110        1.45930        0.50570
C         -0.04180        0.01660        0.23360
C         -0.93480       -0.81550        1.05810
N          0.51810       -1.12190        1.08440
C          0.83980       -1.85480       -0.20390
C          0.30750       -3.27360       -0.28150
O          0.83440       -4.06280        0.76990
C          0.26430       -0.71320       -1.08080
H          1.27120        1.72180        0.17330
H         -0.44610        2.10990       -0.02250
H          0.18800        1.67580        1.57540
H         -1.27830       -0.40420        2.00260
H         -1.63350       -1.50640        0.59250
H          1.93050       -1.89810       -0.26950
H         -0.79480       -3.28460       -0.27660
H          0.62560       -3.73900       -1.22190
H          0.76130       -3.53460        1.57410
H         -0.60230       -0.94130       -1.70950
H          1.02210       -0.22370       -1.69550
