18
gdb 12919	3.43428	1.56227	1.29642	2.2111	67.74	-0.2357	0.0652	0.3009	997.9139	0.152994	-384.88926	-384.88102	-384.880076	-384.922133	30.399
C         -0.09100        1.56250        0.00100
C          0.00370        0.06520        0.02800
C         -0.95250       -0.88450       -0.69810
O         -0.89470       -1.85060        0.38500
C         -0.08480       -0.95020        1.15030
C          1.23780       -0.70730        0.47680
C          1.96560       -1.76870       -0.31620
O          2.71750       -2.63380        0.52460
H          0.49100        2.00990        0.81280
H          0.29570        1.97030       -0.94080
H         -1.12890        1.89800        0.10810
H         -1.96520       -0.47180       -0.78390
H         -0.64810       -1.30950       -1.66130
H         -0.28990       -0.86360        2.21200
H          1.89890       -0.08610        1.07940
H          1.25800       -2.33740       -0.93280
H          2.69390       -1.30420       -0.98940
H          2.08800       -3.08980        1.09320
