19
gdb 3355	4.15266	2.84906	2.19769	0.1229	69.6	-0.2791	0.0813	0.3604	693.2588	0.174935	-273.793804	-273.78761	-273.786665	-273.823765	24.855
C         -0.08780        1.44320       -0.32500
C          1.31720        1.67140        0.30060
C          1.42010        0.15610        0.64580
C          1.28790       -0.21010        2.13250
C         -0.21530       -0.05690        2.44060
C         -0.90230       -0.56580        1.15730
C         -0.00200       -0.07490        0.01260
H         -0.90720        1.97240        0.17160
H         -0.14760        1.66260       -1.39390
H          2.07420        2.02340       -0.40460
H          1.33450        2.33650        1.16970
H          2.25800       -0.35380        0.16550
H          1.58810       -1.25460        2.28270
H          1.92330        0.40590        2.77790
H         -0.52590       -0.60140        3.33690
H         -0.46140        0.99890        2.60830
H         -0.92460       -1.66270        1.16390
H         -1.93730       -0.22120        1.05890
H         -0.04790       -0.72830       -0.86130
