14
gdb 4399	3.6306	2.07212	1.32044	4.6664	72.29	-0.189	-0.0253	0.1637	871.2372	0.108979	-378.762269	-378.75545	-378.754506	-378.793013	26.665
N          0.10020        1.34640        0.17480
C         -0.05940       -0.01190        0.06190
C         -1.23710       -0.69180        0.03280
C         -1.17330       -2.11610       -0.01300
C          0.01170       -2.77370       -0.03250
C          1.25600       -2.04820       -0.00960
N          2.41690       -2.56310       -0.02780
O          1.13250       -0.63780        0.03350
H          0.99020        1.69870       -0.14440
H         -0.69170        1.90830       -0.09440
H         -2.17710       -0.15850        0.05480
H         -2.10180       -2.67770       -0.03380
H          0.08790       -3.85150       -0.06800
H          3.13670       -1.84170       -0.00210
