15
gdb 2868	7.22002	1.78967	1.48072	0.7776	72.43	-0.2236	-0.0137	0.2099	816.4254	0.125646	-271.372094	-271.36541	-271.364465	-271.40255	25.138
C          0.06290       -1.19030        0.00140
C         -0.01660        0.01230        0.02560
C         -0.04660        1.42690        0.05910
C         -1.13880        2.20660        0.05890
C         -0.79680        3.67300        0.04650
C          0.71780        3.68670        0.37830
C          1.22660        2.26290        0.04620
H          0.11460       -2.25030       -0.02210
H         -2.15580        1.83330        0.02970
H         -1.00490        4.10550       -0.94330
H         -1.39040        4.25430        0.76110
H          1.26230        4.46500       -0.16180
H          0.85180        3.87990        1.44710
H          1.96970        1.89830        0.76210
H          1.69660        2.21040       -0.94470
