13
gdb 19803	4.45363	2.13516	1.92023	3.6187	57.82	-0.2645	0.0168	0.2813	705.6279	0.096144	-398.531715	-398.525995	-398.525051	-398.561478	22.542
N         -0.03220        1.22400        0.07430
C         -0.04090       -0.02610        0.05460
O          1.01110       -0.93970        0.05690
C          0.09280       -2.06130       -0.03490
C         -0.38690       -2.63820        1.33150
O         -0.47070       -1.54980        2.24780
C         -1.54440       -1.72110        1.32890
C         -1.11390       -1.09890       -0.03390
H          0.91880        1.59290        0.12870
H          0.33680       -2.75670       -0.83600
H         -0.24600       -3.63180        1.73990
H         -2.54490       -1.82330        1.73020
H         -1.85300       -1.05410       -0.82930
