18
gdb 19845	3.25749	2.44088	1.74028	2.3682	70.46	-0.2261	0.0664	0.2925	798.8534	0.15809	-343.941713	-343.935434	-343.93449	-343.971751	26.096
C         -0.02400        1.51050       -0.01050
C          1.40210        2.09710        0.04920
C          2.19410        1.56150        1.22750
N          1.42560        1.32390        2.45780
C          1.93720        0.16900        1.70080
C          0.95700       -0.68260        0.94040
N         -0.47130       -0.64340        1.29580
C         -0.01910       -0.01240        0.03870
H         -0.59700        1.88110        0.84220
H         -0.52050        1.85680       -0.92230
H          1.95050        1.85860       -0.87240
H          1.34530        3.19070        0.10670
H          3.20940        1.94190        1.32380
H          2.00130        1.47770        3.28030
H          2.77610       -0.37340        2.13070
H          1.36910       -1.63570        0.61480
H         -0.88990       -1.54850        1.09600
H         -0.26210       -0.52490       -0.88940
