18
gdb 8685	2.35928	1.76808	1.29089	2.0379	69.74	-0.2588	0.0236	0.2824	1024.8501	0.150516	-384.903619	-384.894059	-384.893115	-384.937273	35.258
C         -0.21490        1.52780        0.00620
C          0.05940        0.02590       -0.06810
C          0.79050       -0.54260        1.16320
O         -0.03650       -0.24520        2.30840
C          0.90390       -2.08770        1.07540
O         -0.37190       -2.68200        1.10450
C          2.12460        0.03810        1.32770
C          3.23440        0.47010        1.49500
H          0.71660        2.09820        0.07650
H         -0.74910        1.86340       -0.88760
H         -0.82470        1.76650        0.88060
H         -0.87500       -0.53510       -0.16490
H          0.66530       -0.21010       -0.95000
H          0.52740       -0.26130        3.08940
H          1.38840       -2.37980        0.13890
H          1.53720       -2.43680        1.90720
H         -0.84010       -2.24390        1.82820
H          4.21100        0.86590        1.63080
