17
gdb 8288	6.29125	0.98081	0.95232	4.1717	67.31	-0.2588	0.0191	0.2779	1226.299	0.14128	-400.977243	-400.96895	-400.968005	-401.010913	29.768
O          0.54410        0.33460       -0.85930
C         -0.17110       -0.36650        0.11950
C          0.13430       -0.13900        1.62840
C         -1.37610       -0.28910        1.90950
C         -1.65860       -0.00930        0.40880
O         -1.64020       -1.64400        2.27610
C         -2.90190       -1.92950        2.65130
N         -3.24470       -3.12570        2.86250
H          0.48220        1.27590       -0.66430
H         -0.07110       -1.42340       -0.13770
H          0.79870       -0.83640        2.14070
H          0.46670        0.88760        1.81470
H         -1.82700        0.38680        2.64330
H         -1.84700        1.05690        0.24000
H         -2.44260       -0.59480       -0.07590
H         -3.53980       -1.04020        2.75680
H         -4.21610       -3.15900        3.16500
