12
gdb 2810	4.01831	2.32502	1.60727	1.7135	62.72	-0.248	0.018	0.266	741.8895	0.088237	-286.134079	-286.12716	-286.126216	-286.16481	25.509
C         -0.18720       -1.21420        0.00380
C         -0.07870       -0.01780        0.02910
C          0.02260        1.41330        0.01560
N          0.52720        2.08290        1.22910
C          1.35150        2.13210        0.00700
C          2.60480        1.43380        0.01170
C          3.66500        0.86940       -0.02100
H         -0.27150       -2.27260       -0.00650
H         -0.76640        1.91650       -0.54040
H          0.04740        2.97140        1.35270
H          1.35660        3.06480       -0.55420
H          4.59710        0.36090       -0.03740
