10
gdb 21444	3.34335	2.57156	1.45355	0.5198	55.15	-0.3006	-0.0777	0.2229	750.1143	0.058452	-446.672749	-446.666195	-446.665251	-446.704661	22.92
N         -0.00140        1.23920        0.43380
C         -0.04780        0.05450        0.02190
O          1.08390       -0.55990       -0.49360
N          1.07010       -1.88260       -0.96410
N          0.05230       -2.56270       -0.94180
O         -1.16050       -2.05970       -0.44440
C         -1.27980       -0.76900        0.04920
N         -2.37910       -0.35020        0.48680
H          0.93750        1.62970        0.32820
H         -3.10170       -1.07020        0.41790
