15
gdb 10936	4.24384	1.56531	1.38452	4.2681	65.74	-0.2609	0.0029	0.2637	915.1306	0.118127	-362.633974	-362.626637	-362.625693	-362.665522	27.317
C          0.05860        1.50270       -0.01560
C          0.05960        0.01510        0.08570
C         -0.89530       -0.86320        0.82990
C          0.59550       -0.99260        1.08270
C          1.22350       -1.67440       -0.13410
O          0.60020       -0.72600       -1.03450
C          2.68560       -1.58480       -0.18930
N          3.83910       -1.52560       -0.21290
H          1.06330        1.88180       -0.22360
H         -0.60580        1.82820       -0.82360
H         -0.30060        1.94690        0.91690
H         -1.43920       -0.38740        1.64010
H         -1.43910       -1.64400        0.30490
H          1.06670       -0.87030        2.04740
H          0.91580       -2.70590       -0.34350
