15
gdb 19047	4.35431	2.13177	1.87758	3.5365	65.77	-0.2177	-0.0558	0.1618	745.7895	0.117541	-362.52399	-362.5176	-362.516656	-362.554161	25.57
C         -0.02710        1.54450       -0.09060
C          0.01120        0.02530       -0.00110
N          0.87830       -0.46250       -1.15320
C          1.59200       -1.32470       -0.56630
O          2.92960       -1.07060       -0.21730
C          2.30770       -1.02670        1.14590
C          0.76250       -0.54740        1.23420
C          1.19750       -1.91430        0.82820
H          0.98730        1.95040       -0.11970
H         -0.55190        1.86450       -0.99410
H         -0.54900        1.95370        0.78250
H         -1.01330       -0.37700       -0.02030
H          3.01290       -0.97350        1.96640
H          0.41450       -0.33250        2.24310
H          0.91960       -2.91710        1.12100
