17
gdb 17318	2.63457	2.4844	1.67226	2.7803	67.62	-0.2185	0.0657	0.2843	834.0248	0.141434	-363.756047	-363.748594	-363.747649	-363.787247	29.194
C         -0.03760        1.58970       -0.04590
C          0.14310        0.07650        0.04410
C          1.29020       -0.87720       -0.31360
N          2.72020       -0.58100        0.08980
C          2.82970        0.74560        0.72460
C          2.22140       -0.36490        1.49300
C          0.78120       -0.78020        1.09860
O          0.11260       -1.74240        1.83350
H          0.44900        2.01420       -0.93020
H         -1.10390        1.82480       -0.12310
H          0.34170        2.11250        0.83560
H         -0.75200       -0.45220       -0.28640
H          1.15800       -1.64190       -1.06850
H          3.86170        0.98570        0.97130
H          2.25960        1.58270        0.35280
H          2.72050       -0.84900        2.32690
H         -0.44460       -1.29580        2.48100
