12
gdb 19339	5.34091	1.70365	1.52856	4.9489	59.45	-0.2509	-0.0166	0.2342	793.5491	0.083539	-377.418623	-377.412525	-377.411581	-377.448796	23.457
N          0.03980       -1.14180       -0.13340
C          0.05680        0.01210       -0.05400
C          0.05430        1.42780        0.10990
O          0.20720        2.28310       -1.02320
C          1.13420        2.42980        0.04140
C          0.46810        3.23750        1.21290
N         -0.90380        3.58780        0.78140
C         -0.61630        2.23660        1.29060
H          2.18940        2.30930       -0.16960
H          0.99310        3.76350        1.99750
H         -1.33500        4.10790        1.54570
H         -1.11630        1.79310        2.13990
