14
gdb 14301	3.96281	1.91895	1.84404	2.1425	57.39	-0.2216	0.0446	0.2662	763.4485	0.108633	-415.849796	-415.843034	-415.84209	-415.880394	26.261
N          0.14570        1.28600       -0.22400
C          0.00960       -0.06310       -0.07720
N         -1.08480       -0.73620       -0.10640
C         -0.68910       -2.12340       -0.03510
C          0.14760       -2.60960       -1.20130
O          0.20720       -1.88330       -2.38330
C          0.83640       -2.11030        0.05130
O          1.18350       -0.73420        0.06410
H          0.98440        1.68360        0.16960
H         -0.69920        1.80980       -0.05790
H         -1.34580       -2.79560        0.50540
H          0.19010       -3.68700       -1.34570
H         -0.53930       -1.26990       -2.37800
H          1.48230       -2.71590        0.67360
