17
gdb 1718	4.00358	2.25417	1.96529	2.4479	59.71	-0.2465	0.0719	0.3184	740.6517	0.147768	-346.838702	-346.831177	-346.830233	-346.870205	27.71
C         -0.29840        1.69550       -0.17090
C         -0.05690        0.19760       -0.12840
C         -1.33810       -0.59650        0.14130
O         -1.80740       -0.34360        1.44950
C          0.87020       -0.41120       -1.20760
C          1.74630       -0.84980       -0.01930
O          0.90230       -0.15320        0.92460
H          0.64960        2.23800       -0.21840
H         -0.89700        1.95850       -1.05020
H         -0.84380        2.01100        0.72250
H         -2.13230       -0.30170       -0.55390
H         -1.13850       -1.66990       -0.01180
H         -1.04040       -0.47920        2.02200
H          0.43630       -1.21100       -1.81130
H          1.33260        0.32640       -1.86560
H          1.77020       -1.92990        0.17100
H          2.77250       -0.46660       -0.00210
