20
gdb 14875	3.85697	1.21743	1.01128	2.7902	70.73	-0.2451	0.0643	0.3094	1203.8065	0.176721	-386.119425	-386.110462	-386.109518	-386.153612	32.16
C         -0.12250        1.67720       -0.19280
C         -0.02950        0.22490        0.28920
C         -1.34510       -0.52690        0.11430
C         -1.78400       -0.93660       -1.31030
O         -1.99880       -2.30600       -0.90190
C         -1.44240       -2.04690        0.41670
C         -0.17740       -2.87430        0.59530
O         -0.48210       -4.24520        0.42200
H          0.82930        2.20020       -0.06130
H         -0.38400        1.72780       -1.25560
H         -0.88800        2.23030        0.36260
H          0.77210       -0.28700       -0.25610
H          0.25920        0.21010        1.34790
H         -2.14090        0.01800        0.63180
H         -2.70110       -0.48200       -1.70070
H         -0.99620       -0.85530       -2.07240
H         -2.16390       -2.32680        1.19440
H          0.59660       -2.54730       -0.11630
H          0.22460       -2.75610        1.60760
H         -0.96560       -4.29740       -0.41240
