13
gdb 16270	3.83595	1.85454	1.40705	2.1106	61.06	-0.2642	-0.0449	0.2194	840.5622	0.094672	-398.575713	-398.568884	-398.56794	-398.606913	24.987
N          0.16170        1.23830       -0.04480
C          0.02550       -0.00090        0.05220
O          0.98250       -1.02290        0.08920
C         -0.05740       -2.01940        0.00210
C         -0.92820       -1.97390        1.18170
C         -1.14500       -0.92670        0.06960
C         -2.41180       -0.82520       -0.67700
O         -3.25560       -1.69090       -0.68240
H          1.14510        1.51070       -0.07910
H          0.06310       -2.81480       -0.72020
H         -1.73790       -2.69670        1.20820
H         -0.52800       -1.64920        2.13620
H         -2.52940        0.11360       -1.25520
