20
gdb 14024	3.29322	1.58284	1.3153	1.1219	75.89	-0.2327	0.0789	0.3116	1028.3402	0.176365	-348.964881	-348.956481	-348.955537	-348.99787	31.259
C         -0.00220        1.04600        0.48570
O         -0.17010       -0.01060       -0.43790
C         -1.37860       -0.68390       -0.27230
C         -1.48830       -2.03160       -0.91650
C         -1.43670       -1.92130        0.58600
C         -0.32100       -2.39020        1.52660
C         -1.36570       -2.38930        2.68360
C         -2.50860       -2.24930        1.63280
H          0.96920        1.50270        0.28110
H         -0.78560        1.81080        0.36890
H         -0.02050        0.69150        1.52610
H         -2.25790       -0.03470       -0.28280
H         -2.42390       -2.30000       -1.39750
H         -0.59640       -2.40050       -1.41370
H          0.03980       -3.39550        1.28620
H          0.54410       -1.73050        1.62830
H         -1.39290       -3.27550        3.32110
H         -1.27840       -1.50700        3.32280
H         -3.26820       -1.48460        1.82210
H         -3.01720       -3.19900        1.43590
