24
gdb 6556	3.54607	1.16525	1.13189	0.0972	85.12	-0.2681	0.0774	0.3454	1241.9936	0.221788	-314.270457	-314.260655	-314.259711	-314.30457	37.55
C         -0.04530        1.54250        0.20260
C          0.01600        0.01470        0.01730
C          0.74630       -0.61750        1.21560
C         -1.42090       -0.53630       -0.04360
C          0.72020       -0.34560       -1.31740
C          2.16220        0.09590       -1.47430
C          3.30710       -0.80330       -1.07320
C          3.02880       -0.54250       -2.53210
H          0.95200        1.98140        0.30640
H         -0.53900        2.02590       -0.64810
H         -0.61050        1.79960        1.10520
H          0.22290       -0.39000        2.15100
H          0.79490       -1.70810        1.11950
H          1.77010       -0.24390        1.30430
H         -1.97710       -0.10360       -0.88280
H         -1.42230       -1.62500       -0.16840
H         -1.97080       -0.30550        0.87550
H          0.67310       -1.43530       -1.45300
H          0.12820        0.08460       -2.13800
H          2.33210        1.15890       -1.32790
H          4.18920       -0.35630       -0.62740
H          3.06530       -1.78590       -0.68150
H          2.59880       -1.34950       -3.11720
H          3.71820        0.08560       -3.08550
