17
gdb 16147	3.94029	1.74082	1.45079	3.0613	68.66	-0.2431	-0.0242	0.2189	893.1718	0.143368	-363.860605	-363.853539	-363.852595	-363.891868	27.034
O         -0.27910        0.13050        0.20130
C         -0.04910        1.28490       -0.06310
C          1.30610        1.89180       -0.03390
C          1.44840        3.33660        0.34430
N          1.55750        2.95520       -1.05380
C          2.94470        2.74650       -1.52300
C          3.66950        1.83000       -0.50990
C          2.52900        1.00420        0.12320
H         -0.85500        1.99260       -0.35870
H          0.56430        3.91940        0.58930
H          2.34020        3.61170        0.90300
H          2.87640        2.26590       -2.50430
H          3.43690        3.71400       -1.66020
H          4.42420        1.20380       -0.99130
H          4.18860        2.42080        0.25040
H          2.72610        0.73760        1.16480
H          2.35230        0.07010       -0.41870
