14
gdb 3064	9.13737	1.03854	0.99529	1.087	64.08	-0.2401	0.0181	0.2581	1138.0402	0.113277	-324.507184	-324.499522	-324.498578	-324.540168	26.052
O          0.15380        1.09550       -0.74630
C         -0.02120        0.11800        0.27050
C         -1.33560       -0.52130        0.25250
C         -2.44310       -0.99950        0.22450
C         -3.74480       -1.60230        0.20570
C         -4.44910       -1.80260       -1.09850
N         -3.92810       -2.95970       -0.36870
H         -0.58730        1.70750       -0.68680
H          0.76330       -0.62830        0.10160
H          0.15850        0.54250        1.27140
H         -4.35370       -1.43140        1.08980
H         -5.53230       -1.72630       -1.12740
H         -3.93710       -1.46900       -1.99610
H         -3.04860       -3.25780       -0.78430
