19
gdb 13789	3.87597	1.22583	1.11494	3.316	73.11	-0.2437	0.0293	0.273	1152.9753	0.165071	-365.096042	-365.086954	-365.08601	-365.129966	33.068
C          0.01690        1.55370       -0.03150
C         -0.31740        0.07540       -0.26400
C          0.59710       -0.55570       -1.29420
C          1.94090       -1.10280       -0.92760
C          0.85550       -2.06180       -1.37390
C          0.27580       -2.98670       -0.34940
N         -0.29800       -4.11790       -0.86450
O          0.31950       -2.78080        0.85230
H          1.04080        1.67160        0.33850
H         -0.06950        2.13530       -0.95650
H         -0.65960        1.99840        0.70490
H         -0.24350       -0.48220        0.67270
H         -1.35860       -0.01430       -0.60160
H          0.54050       -0.08850       -2.27590
H          2.78460       -0.94750       -1.59040
H          2.17880       -1.15490        0.12970
H          0.93800       -2.47100       -2.37630
H         -0.47700       -4.22040       -1.84790
H         -0.78830       -4.72140       -0.22450
