15
gdb 1766	4.62081	1.94732	1.70255	3.1688	62.62	-0.2677	0.0181	0.2858	782.5005	0.124466	-304.696646	-304.688992	-304.688048	-304.72808	27.334
C         -0.06450        1.52770       -0.09540
C          0.00400        0.02800        0.05290
N          1.30140       -0.62340       -0.15100
C          0.69330       -0.66340        1.20010
C          1.43090        0.06550        2.30640
C          0.09760       -1.91930        1.60720
N         -0.36430       -2.92900        1.93310
H          0.85330        2.00970        0.24550
H         -0.20460        1.78920       -1.14940
H         -0.90940        1.93560        0.46850
H         -0.87040       -0.49900       -0.32560
H          1.19540       -1.51950       -0.61970
H          1.89320        0.97350        1.91860
H          0.74890        0.33050        3.11970
H          2.22180       -0.56940        2.71580
