20
gdb 11984	2.61268	2.09551	1.75198	1.31	74.18	-0.2454	0.0708	0.3162	893.2256	0.176126	-348.979563	-348.971192	-348.970248	-349.011446	32.868
C         -0.10670        1.58150       -0.06470
C          0.00490        0.05960       -0.04320
C         -1.35350       -0.58560        0.23540
C          0.71090       -0.61790       -1.23470
C          2.15220       -0.21650       -1.33890
C          1.76210       -1.23710       -0.30630
C          1.12890       -0.55550        0.89660
O          2.01000        0.32310        1.56680
H          0.86090        2.06380       -0.21840
H         -0.78150        1.90760       -0.86420
H         -0.51610        1.95770        0.88130
H         -2.08360       -0.31570       -0.53640
H         -1.27840       -1.67840        0.25270
H         -1.75510       -0.25910        1.20200
H          0.18840       -1.09450       -2.05680
H          2.68100       -0.61910       -2.19710
H          2.49060        0.76670       -1.03020
H          2.17310       -2.23900       -0.30750
H          0.68940       -1.27650        1.59950
H          1.53050        0.73300        2.29380
