22
gdb 6767	6.99289	0.64447	0.60318	2.5125	79.84	-0.2411	-0.0067	0.2343	1899.8104	0.197116	-350.243088	-350.232447	-350.231503	-350.280639	36.322
C          0.00070        1.59930        0.08010
C          0.00310        0.07250       -0.03270
C         -1.39800       -0.54210        0.05690
C         -1.39650       -2.06960       -0.05590
C         -2.79540       -2.67800        0.03400
C         -2.82040       -4.19800       -0.07580
C         -4.18860       -4.85480        0.00850
O         -1.81050       -4.84800       -0.22160
H          1.01410        2.00730        0.01260
H         -0.59510        2.05480       -0.71900
H         -0.42620        1.92550        1.03520
H          0.46710       -0.22520       -0.98220
H          0.63470       -0.35350        0.75790
H         -1.86380       -0.24360        1.00710
H         -2.03140       -0.11530       -0.73410
H         -0.93460       -2.37520       -1.00180
H         -0.76770       -2.50290        0.73050
H         -3.28570       -2.40030        0.97870
H         -3.45210       -2.27290       -0.75000
H         -4.84330       -4.47860       -0.78570
H         -4.08670       -5.93680       -0.08220
H         -4.67300       -4.60900        0.96030
