14
gdb 9054	3.19291	1.33197	1.13623	2.6305	62.35	-0.3212	-0.0165	0.3046	1056.081	0.105671	-378.732572	-378.724057	-378.723113	-378.766427	28.895
C          1.75890        1.26480        0.00510
C          0.64000        0.33510       -0.45630
O          1.23370       -0.68250       -1.25350
C          0.32420       -1.54780       -1.90140
C         -0.46320       -0.86060       -2.94170
N         -1.07660       -0.29890       -3.74340
C         -0.08220       -0.26150        0.68910
N         -0.65090       -0.74910        1.56890
H          2.49650        0.70810        0.58710
H          2.24630        1.69560       -0.87190
H          1.35180        2.06910        0.62190
H         -0.09330        0.89900       -1.05150
H          0.92610       -2.33310       -2.36590
H         -0.36560       -2.02270       -1.18960
