18
gdb 9716	3.5508	1.5687	1.51602	2.8194	73.68	-0.2365	-0.0262	0.2102	937.6302	0.153222	-347.831725	-347.823656	-347.822712	-347.864396	29.816
C         -0.01110        1.58610        0.01100
C          0.00430        0.05560        0.03560
C          0.72800       -0.59390       -1.19100
C          1.56820       -1.77790       -0.64300
C          1.60190       -1.51580        0.84220
C          0.78000       -0.53350        1.20510
C         -1.41850       -0.49330        0.12520
O         -2.41080        0.16320        0.30640
H          1.01030        1.97730        0.00240
H         -0.53400        1.95610       -0.87620
H         -0.53260        1.98610        0.88430
H          0.02600       -0.90440       -1.97090
H          1.38320        0.15980       -1.63680
H          1.10340       -2.74920       -0.85860
H          2.56990       -1.81880       -1.08630
H          2.22730       -2.08470        1.52190
H          0.61970       -0.18310        2.21910
H         -1.47420       -1.60250        0.02120
