15
gdb 19891	3.99636	1.95172	1.61198	4.4051	68.28	-0.2344	0.0213	0.2557	806.0454	0.119988	-325.460385	-325.454012	-325.453068	-325.490735	25.302
N         -0.28510       -1.21790       -0.20910
C         -0.08560       -0.08760       -0.05940
C          0.07790        1.33850        0.07040
C          0.50230        2.15520        1.27810
C          1.71880        1.63390        2.09040
C          2.34120        0.36690        1.57330
C          2.56610        1.65180        0.82600
C          1.34540        2.17300        0.02000
H         -0.72460        1.84900       -0.46010
H         -0.16220        2.92100        1.65740
H          1.95630        2.04170        3.06370
H          3.20720        0.05230        2.14910
H          1.76700       -0.45850        1.17680
H          3.55110        2.07550        0.68370
H          1.43340        2.95480       -0.72370
