17
gdb 19472	4.76735	1.57947	1.53131	2.0064	69.32	-0.2155	0.0057	0.2212	896.9975	0.143403	-363.792857	-363.785903	-363.784959	-363.82411	26.798
C         -0.05680        1.34790       -0.18410
O         -0.06880        0.03360        0.33080
C         -1.28490       -0.61120        0.17570
C         -1.54300       -1.42930       -1.17230
N         -0.58720       -2.43160       -0.59640
C         -1.28580       -2.09560        0.68860
C         -2.75810       -2.44020        0.41630
C         -2.92760       -1.99110       -0.83500
H          0.91720        1.77970        0.05590
H         -0.19130        1.36260       -1.27550
H         -0.84490        1.96860        0.27030
H         -2.12180        0.01880        0.50440
H         -1.34020       -1.03330       -2.16730
H         -0.81450       -3.37860       -0.90540
H         -0.81570       -2.38660        1.62730
H         -3.46810       -2.86560        1.11110
H         -3.81880       -1.94250       -1.44490
