18
gdb 10617	2.95089	1.57996	1.24447	3.3604	64.44	-0.2454	0.0565	0.3019	1011.4445	0.152419	-422.043078	-422.034108	-422.033163	-422.076302	33.113
O          0.34550        1.20010       -0.45660
C          0.11080        0.00050        0.25940
C         -1.32230       -0.49110        0.12590
C         -2.32730        0.28440        0.94140
O         -2.31410        1.64380        0.48950
C         -1.75320       -1.01030       -1.23470
C         -1.58510       -1.96070       -0.07980
O         -0.48770       -2.82590       -0.02680
H         -0.38940        1.78800       -0.23880
H          0.79740       -0.75100       -0.13570
H          0.34510        0.12300        1.33120
H         -3.33380       -0.14690        0.83090
H         -2.05600        0.23480        2.00720
H         -2.78520        2.18480        1.13000
H         -2.75440       -0.78880       -1.58930
H         -0.98810       -1.01850       -2.00350
H         -2.49240       -2.36470        0.37260
H         -0.58210       -3.46670       -0.73880
