10
gdb 729	9.75353	3.57369	2.65866	4.0664	44.67	-0.2707	-0.0356	0.2351	466.4947	0.073075	-301.335636	-301.330443	-301.329499	-301.364219	17.83
C          0.02400        1.51180        0.03190
C         -0.05540        0.02790        0.04490
C         -1.04550       -0.86030       -0.24770
N         -0.53140       -2.11910       -0.05110
N          0.66300       -2.05970        0.32810
O          1.02350       -0.66540        0.40690
H          0.80530        1.85210       -0.65490
H         -0.92940        1.93940       -0.28340
H          0.26850        1.89610        1.02710
H         -2.05800       -0.69780       -0.57480
