13
gdb 7882	4.08758	1.84877	1.27328	3.192	66.03	-0.2259	-0.0532	0.1727	873.952	0.097313	-394.849437	-394.842204	-394.84126	-394.880794	26.969
N          0.10420        1.32860        0.07680
C         -0.05050       -0.00720        0.02810
C         -1.13350       -0.82340        0.01290
C         -0.66940       -2.21400       -0.00890
O         -1.28820       -3.25180       -0.03290
N          0.75220       -2.14900        0.00280
C          1.19490       -0.84750        0.00510
N          2.35540       -0.32370       -0.01530
H          1.04380        1.68090       -0.02510
H         -0.67100        1.95340       -0.05220
H         -2.17940       -0.56040        0.01960
H          1.33050       -2.97090       -0.04300
H          3.10100       -1.01940       -0.03470
