15
gdb 3335	4.22124	3.39283	2.28783	1.0772	61.38	-0.2195	0.0161	0.2356	612.3133	0.127035	-308.499978	-308.494276	-308.493332	-308.529167	22.627
C         -0.07270        1.49490       -0.13030
C          1.26130        0.83500        0.04780
O          2.01620        0.89600        1.21870
C          1.30410        0.78460        2.44720
C          0.23270       -0.27170        2.42520
C         -0.34620       -0.65230        1.28540
C          0.02740       -0.03390       -0.00650
H         -0.52450        2.01690        0.70540
H         -0.30290        1.91570       -1.10340
H          1.93660        0.82150       -0.80060
H          2.06430        0.54640        3.19910
H          0.88250        1.76530        2.72940
H         -0.04750       -0.71250        3.37680
H         -1.10250       -1.43190        1.28040
H         -0.15820       -0.61680       -0.90220
