21
gdb 1571	6.06909	1.09287	0.98659	1.2822	71.32	-0.2624	0.0787	0.3411	1233.9153	0.192959	-312.12682	-312.117231	-312.116287	-312.161168	33.726
C          0.05710        1.59010        0.03880
C         -0.01660        0.06110       -0.00670
C          0.65440       -0.52800       -1.25360
C          0.68640       -2.06520       -1.30580
C         -0.71130       -2.69160       -1.39900
C          1.56440       -2.53000       -2.46950
O          1.69760       -3.94340       -2.40380
H          1.09650        1.93720        0.03980
H         -0.43770        2.03660       -0.83120
H         -0.42730        1.98750        0.93630
H          0.46130       -0.35570        0.88990
H         -1.06670       -0.25040        0.03560
H          0.14620       -0.14610       -2.15130
H          1.68480       -0.14860       -1.30550
H          1.16820       -2.43110       -0.38760
H         -0.63390       -3.77570       -1.50740
H         -1.31210       -2.47920       -0.51050
H         -1.25340       -2.30210       -2.27030
H          1.10460       -2.21920       -3.42310
H          2.54970       -2.04040       -2.40560
H          2.18480       -4.23640       -3.17880
