14
gdb 21231	7.62975	1.11265	0.98529	3.1081	60.06	-0.2418	-0.0698	0.172	1130.7857	0.106866	-411.969305	-411.961824	-411.96088	-412.002031	25.654
C         -0.04110        1.48700       -0.13580
N         -0.00900        0.03350       -0.21380
C         -1.20930       -0.58680        0.30560
C         -1.20840       -2.06320        0.09140
N         -0.38000       -2.72390       -0.66350
O         -0.78660       -4.01460       -0.56930
N         -1.88820       -4.07680        0.27490
N         -2.14150       -2.91040        0.66760
H          0.87050        1.89300       -0.58150
H         -0.90920        1.94870       -0.63920
H         -0.06490        1.79690        0.91520
H          0.15360       -0.26960       -1.16750
H         -1.27840       -0.40020        1.38560
H         -2.15110       -0.18890       -0.12380
