14
gdb 15471	2.88147	2.0875	1.46404	2.0375	63.01	-0.2466	-0.0341	0.2125	858.0325	0.106078	-382.518871	-382.511516	-382.510572	-382.550881	26.887
O         -0.00620        0.00230       -0.16890
C         -0.03220        1.18950       -0.01890
C         -1.25070        2.09040        0.18700
C         -0.62010        3.44800        0.50600
O          0.64480        3.43940       -0.16940
C          1.20140        2.14240       -0.02380
C          1.96840        1.98090        1.21150
C          2.56570        1.85230        2.24660
H         -1.81420        2.11800       -0.75200
H         -1.90470        1.68620        0.96230
H         -1.18070        4.30280        0.12480
H         -0.47360        3.57380        1.58780
H          1.82790        1.93670       -0.89750
H          3.11050        1.73680        3.15120
