19
gdb 11749	4.9905	1.28948	1.20691	2.6167	71.61	-0.2448	0.0696	0.3144	1068.7951	0.165474	-365.024652	-365.016383	-365.015439	-365.057311	31.138
C         -0.30640        1.49170        0.08360
C          0.12130        0.02650       -0.07430
C          0.90040       -0.47530        1.10740
C          2.34770       -0.09750        1.47420
C          2.53840       -1.55680        2.02360
O          2.79110       -1.72150        3.40380
C          1.08940       -1.86720        1.65320
N          0.18290       -0.92110        2.29770
H          0.56180        2.15140        0.18970
H         -0.87780        1.83120       -0.78550
H         -0.93310        1.61530        0.97220
H         -0.76440       -0.60610       -0.19740
H          0.72810       -0.08860       -0.98170
H          2.98730        0.11110        0.61200
H          2.45720        0.70880        2.20760
H          3.25410       -2.12460        1.41430
H          3.67780       -1.39650        3.59010
H          0.69560       -2.82240        1.32420
H          0.57750       -0.56760        3.16790
