18
gdb 5222	6.61558	1.03457	0.95277	3.8224	74.33	-0.2138	0.0348	0.2486	1247.4466	0.155828	-344.033406	-344.025421	-344.024477	-344.06649	29.021
C          0.07120        1.57540       -0.06450
C          0.13810        0.04670       -0.06900
C          0.59270       -0.53330        1.28540
C          0.65620       -2.02490        1.32320
C         -0.08760       -2.96990        1.98430
N          0.34100       -4.24490        1.68820
C          1.33850       -4.08360        0.85270
N          1.57220       -2.76320        0.59560
H          1.04890        2.01570        0.16180
H         -0.25180        1.96250       -1.03560
H         -0.63550        1.93750        0.69030
H         -0.84240       -0.37370       -0.32100
H          0.82290       -0.28930       -0.85870
H          1.56940       -0.10180        1.54910
H         -0.10120       -0.20680        2.06800
H         -0.91020       -2.79710        2.66260
H          1.92660       -4.87010        0.40330
H          2.28790       -2.38990       -0.00530
