17
gdb 13537	2.96114	1.5612	1.17797	5.2644	68.7	-0.2721	0.0441	0.3161	1040.8687	0.1412	-363.860652	-363.852045	-363.851101	-363.893948	31.253
C         -0.28660        1.33600        0.07060
C          0.11810       -0.13940       -0.11800
C          0.91990       -0.29490       -1.33970
N          1.56070       -0.39350       -2.29640
C          0.88240       -0.68750        1.08140
C          0.12510       -1.07350        2.33710
C          0.75480       -2.13250        1.46470
O         -0.06720       -2.91590        0.65070
H          0.59620        1.96820        0.20110
H         -0.84410        1.70290       -0.79470
H         -0.91430        1.43260        0.96020
H         -0.78150       -0.74920       -0.25190
H          1.86150       -0.23970        1.22300
H          0.56170       -0.84690        3.30340
H         -0.95790       -1.00550        2.29920
H          1.65030       -2.63340        1.83020
H         -0.51380       -3.56210        1.20730
