13
gdb 21598	3.54159	2.36258	1.41821	5.156	68.34	-0.1981	-0.0371	0.1609	801.925	0.098182	-390.939269	-390.93262	-390.931676	-390.96979	25.792
N          0.04830        1.38890        0.11950
C         -0.03740        0.03230        0.03630
C         -1.17000       -0.71580        0.01250
N         -1.04070       -2.08890       -0.02040
N          0.11150       -2.75550       -0.03540
N          1.20680       -2.09920       -0.02640
C          1.23610       -0.69330        0.00110
N          2.32910       -0.01850       -0.01130
H          0.97890        1.73940       -0.06910
H         -0.73300        1.95870       -0.15840
H         -2.17910       -0.32540        0.02450
H         -1.84900       -2.68950       -0.03280
H          3.12430       -0.65780       -0.04500
