12
gdb 23634	3.92282	1.83561	1.25047	4.0736	60.02	-0.2253	-0.0397	0.1857	856.0527	0.08545	-422.696977	-422.690931	-422.689987	-422.727227	23.273
F          0.03030        0.02760        0.00300
C         -0.01410        1.35820        0.01060
C         -1.21470        1.99470        0.03010
C         -1.28580        3.44020        0.03870
O         -2.28810        4.13180        0.05580
N         -0.00850        4.05520        0.02460
C          1.18040        3.40220        0.00520
C          1.23050        2.04320       -0.00260
H         -2.14500        1.44320        0.03980
H         -0.04000        5.06520        0.03040
H          2.06850        4.02210       -0.00360
H          2.16460        1.50190       -0.01810
