19
gdb 9828	3.72873	1.49339	1.18084	3.4108	73.56	-0.2417	0.0369	0.2786	1072.1062	0.164857	-365.091717	-365.082654	-365.08171	-365.125513	32.96
C          0.02900        1.45920        0.00970
N          0.17380        0.01770       -0.03070
C          0.31380       -0.66990       -1.20180
O          0.32570       -0.11270       -2.29050
C          0.45420       -2.16790       -1.07730
C          0.43290       -2.81020        0.29630
C         -0.15050       -2.93940       -2.24010
C          1.33520       -2.79250       -2.14820
H          0.05620        1.81580       -1.02040
H         -0.92340        1.75270        0.46580
H          0.84430        1.92740        0.57300
H          0.17060       -0.48890        0.83690
H         -0.51290       -2.62710        0.82090
H          0.54460       -3.89480        0.21060
H          1.25450       -2.45350        0.92950
H         -0.59640       -3.90160       -2.01210
H         -0.66010       -2.34970       -2.99210
H          1.80790       -2.10580       -2.83940
H          1.92880       -3.65200       -1.85570
