17
gdb 11236	5.14461	1.2525	1.06181	4.3281	75.11	-0.2479	0.0129	0.2607	1102.3645	0.143071	-326.767307	-326.759504	-326.75856	-326.799617	28.742
C         -0.06910        1.47710        0.06360
C          0.01550       -0.01430       -0.00590
C         -0.03460       -0.78370       -1.09490
C          0.02060       -2.25760       -0.78260
C          0.49030       -2.26300        0.70550
C          0.11830       -0.85310        1.25220
C         -0.04900       -3.36620        1.49340
N         -0.48410       -4.23750        2.11650
H          0.81940        1.90340        0.54620
H         -0.16420        1.92150       -0.93050
H         -0.93100        1.79600        0.66350
H         -0.14960       -0.41340       -2.10790
H         -0.96530       -2.72850       -0.88990
H          0.70780       -2.82100       -1.42170
H          1.58170       -2.35340        0.71480
H          0.86620       -0.48330        1.96180
H         -0.83950       -0.87040        1.78900
