15
gdb 12609	3.098	2.2388	1.33174	1.4483	62.84	-0.2576	-0.0157	0.2419	876.9641	0.119601	-399.892913	-399.885193	-399.884249	-399.926076	26.803
C         -0.01000        1.47080        0.00390
N          0.00740        0.01920        0.00420
C          0.08410       -0.72990       -1.16560
O          0.14250       -0.25500       -2.27280
C          0.07940       -2.20540       -0.77620
C         -0.00930       -2.21510        0.75700
C         -0.05070       -0.74590        1.16740
O         -0.12070       -0.29580        2.28410
H          0.89970        1.85960       -0.46050
H         -0.86970        1.83850       -0.56190
H         -0.07340        1.79810        1.04180
H         -0.76590       -2.69570       -1.26600
H          0.98700       -2.67450       -1.16440
H         -0.90500       -2.71060        1.14020
H          0.84770       -2.68970        1.24170
