17
gdb 6958	2.61157	2.35627	1.71343	1.5918	64.84	-0.2663	0.0232	0.2895	841.0397	0.141681	-401.024415	-401.016419	-401.015474	-401.056468	29.629
C          0.00450        1.50110       -0.02810
C         -0.04210       -0.03220        0.02380
C         -1.46620       -0.56690       -0.04960
O          0.71970       -0.60570       -1.05710
C          2.01170       -0.82520       -0.57750
O          1.90360       -1.05270        0.83060
C          0.70760       -0.54930        1.24660
N          0.28750       -0.50930        2.43390
H          1.03400        1.87100       -0.00150
H         -0.46670        1.85530       -0.94900
H         -0.52650        1.91810        0.83120
H         -1.96670       -0.19060       -0.94620
H         -1.46100       -1.65880       -0.08240
H         -2.02170       -0.24660        0.83460
H          2.43270       -1.71610       -1.05210
H          2.67410        0.04050       -0.73810
H          0.97360       -0.89700        3.08270
