8
gdb 189	9.39188	4.18355	2.8943	4.4195	36.02	-0.253	0.0027	0.2556	406.9334	0.050756	-341.145624	-341.141349	-341.140405	-341.173218	15.099
O          0.00200        0.00310        0.00320
C         -0.01410        1.18960        0.00950
O         -1.13210        1.98230        0.02880
C         -0.70690        3.29550        0.02990
C          0.62130        3.31360        0.01220
O          1.08200        2.01250       -0.00080
H         -1.46210        4.06070        0.04410
H          1.35540        4.09920        0.00650
