12
gdb 21780	4.23752	2.20259	1.4766	6.2901	56.41	-0.2523	-0.0054	0.2468	773.9746	0.08523	-414.638898	-414.632727	-414.631783	-414.670335	22.081
O         -0.21340       -0.10860       -0.03890
C         -0.10820        1.07610        0.07530
O         -1.10550        2.00300       -0.21300
N         -0.68130        3.36480        0.02400
C          0.52380        3.18250        0.43370
C          1.84930        3.73190        0.93270
C          2.29050        2.21270        0.98780
N          0.93040        1.89340        0.49210
H          2.39550        4.34590        0.21610
H          1.80770        4.23630        1.89840
H          3.08280        1.92680        0.29450
H          2.49280        1.81680        1.98400
