14
gdb 14292	3.98177	1.84412	1.7895	3.639	56.67	-0.2332	0.0529	0.2861	771.1828	0.108945	-415.876385	-415.86962	-415.868676	-415.907102	26.122
O         -0.01490        1.39670       -0.05170
C         -0.02530        0.01230       -0.03380
C         -0.44130       -0.72360        1.22140
N         -1.14650        0.10290        2.16370
C         -2.41910        0.46170        1.69540
O         -3.23460        1.13530        2.27870
N         -2.52600       -0.07970        0.42210
C         -1.34400       -0.76160       -0.00250
H         -0.13870        1.69650        0.85980
H          0.76970       -0.43900       -0.62200
H          0.09790       -1.58140        1.60460
H         -1.00210        0.02930        3.15670
H         -3.15940        0.36050       -0.22490
H         -1.47660       -1.65320       -0.60580
