15
gdb 11292	4.03696	1.54903	1.35709	3.9758	61.02	-0.2896	0.0142	0.3038	930.8152	0.118936	-399.80895	-399.801299	-399.800355	-399.841622	26.932
C         -0.07860        1.43980       -0.02060
C          0.14690       -0.05370        0.09680
C          0.73350       -0.74470       -1.15120
O          1.69760       -1.67230       -0.63580
C          1.67810       -1.56080        0.76620
O          1.15920       -0.30840        1.08670
C          0.84710       -2.65720        1.35760
N          0.21140       -3.50260        1.82170
H          0.85020        1.94680       -0.29740
H         -0.83390        1.64750       -0.78460
H         -0.43190        1.85010        0.92870
H         -0.77930       -0.56010        0.40310
H         -0.02670       -1.27820       -1.72960
H          1.25320       -0.03510       -1.80460
H          2.69740       -1.63770        1.15620
