10
gdb 4231	3.64884	2.45489	2.00597	2.3939	36.9	-0.28	-0.0521	0.2279	639.062	0.06114	-490.834069	-490.827048	-490.826104	-490.866146	23.371
C         -0.22080        1.46920        0.02730
C          0.20930        0.02520        0.06140
O          0.61410       -0.56400        1.02570
C          0.09750       -0.71780       -1.30080
F         -1.17430       -0.68970       -1.73170
F          0.85300       -0.09680       -2.22150
F          0.48810       -1.97770       -1.20930
H          0.38330        2.01870       -0.70190
H         -1.26170        1.53810       -0.30490
H         -0.11030        1.90910        1.01810
