14
gdb 5731	4.032	2.19185	1.44668	4.2372	64.27	-0.1864	0.0414	0.2278	811.329	0.109637	-378.740893	-378.734218	-378.733274	-378.772787	24.496
O         -0.20910       -0.11670        0.04380
C         -0.12380        1.09080        0.13750
N         -1.13390        2.05200       -0.03490
C         -0.69560        3.37410        0.17810
C          0.61480        3.25260        0.46380
C          2.00920        3.66410        0.90050
C          2.33620        2.11660        0.88220
N          0.95520        1.91320        0.42090
H         -2.06650        1.77560       -0.28570
H         -1.36100        4.21640        0.10860
H          2.57830        4.25460        0.17910
H          2.08130        4.13370        1.88360
H          3.09590        1.79960        0.16380
H          2.54430        1.67540        1.86020
