15
gdb 5394	5.28146	1.64981	1.26736	0.369	72.06	-0.2139	-0.024	0.1899	930.7274	0.121644	-358.907342	-358.900046	-358.899102	-358.939631	25.96
C          0.00510        1.45160       -0.00280
N         -0.06520        0.00810        0.04780
C         -1.22640       -0.69270        0.03030
N         -2.37590        0.00560        0.06170
C         -3.49220       -0.72070        0.06360
C         -3.49720       -2.10940        0.03050
C         -2.24380       -2.71840       -0.00870
N         -1.10510       -2.03780       -0.00990
H          1.04690        1.75340        0.12410
H         -0.36520        1.85290       -0.95460
H         -0.59210        1.89640        0.79790
H          0.77000       -0.54250       -0.05360
H         -4.42470       -0.15960        0.09070
H         -4.41510       -2.68230        0.03010
H         -2.15230       -3.80280       -0.04150
