18
gdb 14912	4.43906	1.42495	1.15306	1.1881	73.84	-0.246	0.0535	0.2995	1037.4483	0.154944	-347.782023	-347.77447	-347.773526	-347.813653	29.322
C          0.05100       -1.21470       -0.02600
C          0.00180       -0.01330       -0.01130
C         -0.02580        1.44250        0.03070
C         -0.77370        1.98190        1.27290
C         -0.66840        3.51130        1.33130
C          0.79260        3.94790        1.21250
O          1.39610        3.43370        0.03520
C          1.40830        2.02230        0.00930
H          0.08510       -2.27570       -0.05030
H         -0.53540        1.81660       -0.86790
H         -1.81800        1.65620        1.25230
H         -0.32120        1.54120        2.17040
H         -1.23910        3.95700        0.50740
H         -1.09500        3.89150        2.26640
H          0.88100        5.03610        1.14880
H          1.35730        3.61250        2.10020
H          1.97100        1.61960        0.86830
H          1.92730        1.72850       -0.90630
