14
gdb 1649	5.11237	1.89815	1.40836	1.2761	55.88	-0.2399	-0.0604	0.1795	841.0664	0.111623	-361.76802	-361.75979	-361.758846	-361.801165	27.253
C          0.05480        1.43910       -0.02050
N         -0.08120       -0.00120       -0.03630
C         -1.26820       -0.63470        0.06780
O         -2.36240       -0.10820        0.18520
C         -1.11270       -2.17370        0.02230
C         -2.39350       -2.95420        0.13220
O         -0.01520       -2.67210       -0.09450
H          0.66910        1.77060        0.82390
H          0.51020        1.80430       -0.94740
H         -0.94540        1.86390        0.07760
H          0.72590       -0.60180       -0.12630
H         -3.07590       -2.65800       -0.67070
H         -2.18520       -4.02310        0.08780
H         -2.90280       -2.69690        1.06630
