22
gdb 6858	3.07483	1.76597	1.55728	1.2091	77.61	-0.2401	0.0793	0.3194	972.7054	0.201118	-350.22997	-350.221674	-350.22073	-350.261781	33.187
C          0.05200        1.49620        0.05740
C         -0.06680       -0.02680       -0.02010
C         -1.55200       -0.43080        0.01170
C          0.64930       -0.55600       -1.28290
C          0.88340       -2.07250       -1.24280
C          1.57840       -2.45820        0.06860
C          0.79350       -1.89760        1.25470
O          0.61240       -0.49450        1.15840
H          1.10390        1.78910        0.11560
H         -0.39480        1.96540       -0.82450
H         -0.45710        1.87440        0.94870
H         -2.09470        0.05650       -0.80450
H         -1.70170       -1.50820       -0.09330
H         -2.00020       -0.11670        0.95880
H          0.07560       -0.27420       -2.17340
H          1.62030       -0.05040       -1.35620
H         -0.07160       -2.60770       -1.32260
H          1.48190       -2.38170       -2.10650
H          1.66960       -3.54630        0.16510
H          2.59330       -2.04130        0.08580
H         -0.17560       -2.41610        1.33850
H          1.32900       -2.05870        2.19580
