17
gdb 17456	3.53142	2.10579	1.67329	1.7877	67.07	-0.2255	0.0669	0.2925	826.1509	0.141067	-363.782606	-363.775221	-363.774277	-363.81377	28.479
C         -0.16910        1.48080       -0.14720
N          0.09110        0.05600        0.01140
C          1.40680       -0.52700       -0.16160
C          2.52440        0.32210        0.42990
O          3.07870       -0.38960        1.55030
C          1.85540        0.34530        1.74940
C          1.82570        1.36260        2.84480
C          0.71640       -0.51300        1.19070
H          0.62670        2.14280        0.21810
H         -0.32490        1.68730       -1.21080
H         -1.09510        1.72730        0.38200
H          1.52740       -1.36010       -0.84440
H          3.15720        1.06700       -0.03820
H          2.75610        1.93610        2.85770
H          0.98490        2.05160        2.71900
H          1.71530        0.87550        3.82000
H          0.22250       -1.33350        1.69950
