16
gdb 19759	3.6964	2.27158	2.20012	0.7266	61.87	-0.2286	0.0685	0.2971	708.0457	0.13334	-383.729424	-383.723567	-383.722623	-383.759014	24.429
O         -0.03750        1.44370        0.05520
C         -0.00020        0.03080       -0.00230
C         -1.38130       -0.55310       -0.23970
C         -1.58370       -0.60760       -1.75800
C         -0.31880       -0.04130       -2.39410
C          0.63240       -0.55950       -1.29800
O          0.29910       -1.95010       -1.18500
C         -1.10530       -1.82380       -1.00360
H          0.85140        1.75670        0.25150
H          0.47570       -0.39820        0.89040
H         -2.19380       -0.44310        0.46470
H         -2.56270       -0.54780       -2.21280
H         -0.09630       -0.47960       -3.37060
H         -0.31700        1.04820       -2.45660
H          1.70550       -0.44260       -1.43980
H         -1.63290       -2.76010       -0.89390
