16
gdb 10645	2.67574	1.85563	1.34776	2.2335	67.92	-0.2416	0.0262	0.2678	953.0886	0.12706	-383.669336	-383.660606	-383.659662	-383.702201	32.103
C          0.18750        1.15550        0.29590
O         -0.16720       -0.12880       -0.19720
C          0.61730       -0.57850       -1.26840
C          1.97710       -1.18610       -0.91070
C          0.80720       -2.08470       -1.21650
O          0.16610       -2.78770       -0.20830
C          0.43730        0.10870       -2.51680
C          0.29150        0.69100       -3.55960
H          1.22240        1.17140        0.66270
H          0.07370        1.91930       -0.48260
H         -0.49390        1.37330        1.12060
H          2.78080       -1.09640       -1.63250
H          2.26680       -1.10530        0.13170
H          0.80550       -2.61890       -2.16090
H         -0.27540       -2.12810        0.34500
H          0.15420        1.19640       -4.48350
