15
gdb 134	18.74523	1.96959	1.86471	1.3815	49.63	-0.2615	0.0813	0.3428	669.0122	0.136722	-233.549368	-233.542485	-233.54154	-233.579515	23.274
C         -0.01160        1.54380        0.01050
C         -0.01510        0.01270        0.00230
C         -1.42740       -0.57990        0.01260
C         -1.43640       -2.10230        0.00450
O         -2.78890       -2.53590        0.01500
H          1.00800        1.94140        0.00290
H         -0.53290        1.94460       -0.86580
H         -0.51600        1.93510        0.90090
H          0.52660       -0.34890       -0.88190
H          0.54340       -0.35840        0.87200
H         -1.97480       -0.23400        0.89830
H         -1.99160       -0.22450       -0.85880
H         -0.90670       -2.47220       -0.88940
H         -0.88980       -2.48170        0.88400
H         -2.79610       -3.49740        0.01000
