16
gdb 817	5.88512	1.90585	1.51808	0.9192	63.6	-0.2369	0.0136	0.2505	805.7743	0.137803	-325.758431	-325.751655	-325.750711	-325.789148	25.597
O         -0.15290        1.32690        0.20670
N          0.01050       -0.07330        0.15180
C         -1.10160       -0.65280       -0.05980
C         -2.47020       -0.01850       -0.20420
C         -3.40690       -1.20460       -0.51580
C         -2.70390       -2.42080        0.12050
C         -1.20980       -2.16020       -0.15510
H          0.74610        1.62690        0.37660
H         -2.73420        0.47300        0.74070
H         -2.47260        0.76710       -0.96500
H         -4.42310       -1.05420       -0.14270
H         -3.47810       -1.34740       -1.60060
H         -2.88460       -2.43150        1.20210
H         -3.05150       -3.37650       -0.27990
H         -0.95690       -2.48200       -1.17460
H         -0.52550       -2.67210        0.52470
