10
gdb 20310	6.51098	1.65656	1.32057	3.0856	63.87	-0.2618	-0.1052	0.1566	823.9384	0.060159	-372.434386	-372.428141	-372.427197	-372.464952	22.178
C          0.03040       -1.17490       -0.00430
C         -0.01250        0.02620        0.00300
C         -0.05480        1.45050        0.01160
N         -1.24430        2.06060        0.03060
C         -1.14660        3.38270        0.03660
N         -0.00980        4.08600        0.02540
N          1.12880        3.40870        0.00660
N          1.13370        2.09360       -0.00070
H          0.06800       -2.23740       -0.01080
H         -2.06710        3.96030        0.05190
