13
gdb 4893	5.52351	1.39951	1.18115	4.9722	56.08	-0.2156	0.0298	0.2454	962.0904	0.095211	-435.769701	-435.762281	-435.761337	-435.802031	26.049
C          0.11730        1.32510        0.15710
O         -0.21840        0.20960       -0.67990
C         -1.27840       -0.50750       -0.27550
C         -1.35880       -1.73520        0.25080
O         -2.69120       -2.06950        0.43460
C         -3.47860       -1.02000        0.00680
O         -4.67780       -1.01850        0.01310
N         -2.59540       -0.03800       -0.39970
H          0.99520        1.78990       -0.29280
H         -0.70060        2.05380        0.19850
H          0.35110        0.98640        1.17230
H         -0.61740       -2.46060        0.53060
H         -2.89380        0.77550       -0.90940
