15
gdb 9317	6.57887	0.86356	0.77445	4.1617	64.92	-0.2845	-0.0868	0.1977	1406.2859	0.115667	-399.805021	-399.795961	-399.795016	-399.839824	29.91
C         -0.02820        1.48230        0.01040
C         -0.02090       -0.03510        0.00200
O         -1.36890       -0.48680        0.01280
C         -1.48530       -1.86750        0.00630
C         -2.94810       -2.26370        0.01830
O         -3.88330       -1.51240        0.03140
C         -3.14750       -3.73340        0.01210
N         -3.29150       -4.88060        0.00700
H          0.99680        1.86400        0.00240
H         -0.55130        1.86800       -0.86860
H         -0.53370        1.85820        0.90390
H          0.49500       -0.42030       -0.89260
H          0.51250       -0.43020        0.88180
H         -1.02130       -2.33630       -0.88310
H         -1.00420       -2.34600        0.88120
