13
gdb 21183	5.57282	1.60198	1.25415	7.0611	64.52	-0.2425	-0.0715	0.171	904.7101	0.095633	-390.911105	-390.903885	-390.902941	-390.943106	25.074
C         -0.05630        1.46540        0.08270
N          0.02890        0.02610       -0.04860
C          0.61620       -0.62110       -1.07300
C          1.23360        0.00820       -2.17180
N          1.77890       -0.71720       -3.12350
N          1.74240       -2.05170       -3.03910
N          1.16630       -2.63900       -2.01230
N          0.60420       -1.96490       -1.03010
H          0.93620        1.92950        0.13360
H         -0.60860        1.91790       -0.74990
H         -0.58660        1.69950        1.00650
H         -0.36700       -0.56900        0.66300
H          1.28730        1.08710       -2.28270
