12
gdb 9473	3.36339	1.73784	1.5746	3.3609	51.93	-0.2787	-0.0694	0.2093	820.5579	0.082255	-455.634308	-455.627177	-455.626233	-455.665966	25.266
O          0.10550        1.47470        0.05130
C         -0.00630        0.10520        0.00130
C         -1.41740       -0.51910       -0.16800
O         -0.97360       -1.24160       -1.35620
C          0.24300       -0.61060       -1.37220
O          1.09630       -0.66480       -2.19070
C          0.80520       -0.55250        1.10420
O          1.48100        0.11350        1.84650
H          0.74690        1.66620        0.75710
H         -1.77170       -1.21050        0.59940
H         -2.17430        0.22750       -0.41210
H          0.73990       -1.65450        1.18260
