18
gdb 15537	3.44438	1.77512	1.3126	0.6034	78.4	-0.2429	0.021	0.2639	960.45	0.153629	-310.650675	-310.642725	-310.641781	-310.682714	30.563
C          0.45350        1.55740       -0.34900
C          0.02840        0.13580        0.05200
C          0.19900       -0.84430       -1.08880
C          1.23410       -1.66310       -0.91480
C          1.93910       -1.41730        0.39600
C          0.91300       -0.53150        1.16790
C          1.50940        0.37680        2.13410
C          2.00910        1.11990        2.93720
H          1.49630        1.58020       -0.68100
H         -0.16780        1.92170       -1.17380
H          0.35050        2.24970        0.49080
H         -1.01240        0.17920        0.39450
H         -0.43280       -0.81090       -1.97020
H          1.57440       -2.40500       -1.62880
H          2.17340       -2.33330        0.94830
H          2.89110       -0.89190        0.24630
H          0.25250       -1.21890        1.71060
H          2.44980        1.77460        3.64750
