13
gdb 2065	5.15103	2.69583	1.85565	4.8544	56.21	-0.2631	-0.0462	0.2169	655.2364	0.103662	-344.499155	-344.493387	-344.492443	-344.528741	21.473
O          0.00800        0.01210        0.27970
C          0.00250        1.17650       -0.02540
O         -1.18420        1.82060       -0.19700
C         -1.17560        3.10420       -0.83850
C         -0.12140        4.04060       -0.25940
C          1.19690        3.32330       -0.20990
C          1.23480        1.98990       -0.15570
H         -0.99250        2.96030       -1.91150
H         -2.18640        3.49740       -0.71240
H         -0.05680        4.94140       -0.87990
H         -0.40480        4.37630        0.74800
H          2.11340        3.90700       -0.20110
H          2.15790        1.42500       -0.10700
