18
gdb 11065	3.37888	2.25519	1.90563	2.5879	65.87	-0.2466	0.0757	0.3223	786.0981	0.156072	-384.953299	-384.946665	-384.945721	-384.983647	26.793
C         -0.03660        1.48170       -0.01190
C          0.01290       -0.03330        0.01550
C          0.76840       -0.70190       -1.15510
O          0.98210       -2.05470       -0.70660
C          0.39190       -2.11260        0.58200
C          0.72100       -0.74960        1.19220
O         -1.02230       -2.09880        0.47280
C         -1.35470       -0.74860        0.09420
H          0.97140        1.90910       -0.02880
H         -0.56630        1.84710       -0.89920
H         -0.55480        1.87550        0.86860
H          0.18680       -0.70680       -2.08500
H          1.73640       -0.22040       -1.34900
H          0.70130       -3.03320        1.07330
H          1.79290       -0.54810        1.24980
H          0.24480       -0.58220        2.16080
H         -2.00940       -0.30280        0.85520
H         -1.88510       -0.75230       -0.86590
