20
gdb 7183	2.79274	1.12207	0.84902	3.2788	73.22	-0.2403	-0.0171	0.2232	1379.357	0.173278	-386.150794	-386.140669	-386.139725	-386.187012	34.622
C         -0.09440        1.51230       -0.08660
C         -0.01900        0.01690        0.17310
O         -1.30300       -0.53760       -0.05400
C         -1.38020       -1.95490        0.02510
C         -1.39680       -2.45520        1.47170
C         -2.65990       -2.35060       -0.72500
C         -2.59860       -2.02840       -2.20230
O         -2.96740       -2.77180       -3.07630
H          0.88140        1.97740        0.08190
H         -0.40070        1.70900       -1.11790
H         -0.82210        1.98100        0.58190
H          0.71830       -0.45650       -0.49630
H          0.31350       -0.17160        1.20540
H         -0.50900       -2.39170       -0.49330
H         -1.46510       -3.54710        1.49930
H         -0.48680       -2.16570        2.00420
H         -2.25650       -2.03900        2.00640
H         -2.88360       -3.41390       -0.60580
H         -3.48810       -1.77390       -0.28940
H         -2.17930       -1.02600       -2.43420
