13
gdb 671	6.50302	4.64374	3.2459	1.4999	53.83	-0.2299	0.0171	0.247	448.9341	0.11066	-249.332005	-249.32733	-249.326385	-249.359675	18.523
C         -0.04800        1.53060        0.01630
C          1.40580        1.96350        0.04230
C          2.24580        0.92940       -0.04430
C          1.49150       -0.35790       -0.08650
N          0.69340       -0.58810        1.15510
C          0.04870        0.00860       -0.03420
H         -0.59460        1.87370        0.90290
H         -0.57480        1.93000       -0.86050
H          1.69860        3.00180        0.15090
H          3.32740        0.98790       -0.04260
H          1.86430       -1.21910       -0.63070
H          0.43400       -1.57310        1.19160
H         -0.70850       -0.56510       -0.55760
