18
gdb 10147	4.03611	1.11347	0.88828	3.0489	74.85	-0.2259	-0.0648	0.1611	1304.5725	0.151026	-381.126762	-381.116948	-381.116004	-381.162037	33.45
C          0.05870        1.50470        0.00880
C         -0.05830       -0.01410       -0.05460
N          0.71330       -0.54620       -1.16500
C          0.80400       -1.90720       -1.37090
C          1.51330       -2.23130       -2.66360
O          1.71030       -3.34100       -3.08590
N          0.35050       -2.72970       -0.50520
C          0.51290       -4.16560       -0.64900
H          1.10110        1.81530        0.12900
H         -0.33480        1.97470       -0.90040
H         -0.51460        1.89430        0.85410
H          0.32010       -0.47680        0.86220
H         -1.11180       -0.32250       -0.13160
H          0.77170        0.03850       -1.98500
H          1.85820       -1.33430       -3.23260
H         -0.04180       -4.56190       -1.50840
H          1.55740       -4.46980       -0.78550
H          0.12740       -4.64420        0.25590
