14
gdb 10481	3.07387	1.38737	1.02707	2.429	68.49	-0.2541	-0.0397	0.2144	1129.5622	0.103589	-382.497115	-382.488459	-382.487515	-382.531873	29.037
C         -0.04970        1.51140        0.02530
C         -0.01420        0.05800        0.02410
C          0.01470       -1.14510        0.01850
C          0.08080       -2.57710       -0.01110
C         -0.54920       -3.40010        1.05910
O         -1.15370       -3.30970       -0.21190
C          1.23500       -3.23140       -0.72860
O          2.21410       -2.66210       -1.12360
H          0.82570        1.92290       -0.48810
H         -0.94340        1.88180       -0.48830
H         -0.05990        1.90970        1.04550
H         -0.12090       -4.36920        1.31600
H         -1.04620       -2.86790        1.86760
H          1.07700       -4.32520       -0.85710
