15
gdb 4967	3.31419	2.24075	1.34815	2.9639	69.97	-0.2445	-0.0042	0.2403	871.187	0.120753	-362.73184	-362.724907	-362.723962	-362.762684	26.502
C          0.02850        1.50950        0.04870
C          0.02340        0.00360        0.02910
C         -0.05140       -0.71930       -1.16130
N         -0.06080       -2.04940       -1.25890
C          0.00780       -2.73040       -0.11030
C          0.08610       -2.13600        1.14110
C          0.09410       -0.74480        1.21300
O          0.17080       -0.17100        2.44020
H          0.94480        1.91550        0.49820
H         -0.03420        1.90780       -0.96680
H         -0.82240        1.92000        0.60890
H         -0.10760       -0.17080       -2.10090
H         -0.00000       -3.81470       -0.19320
H          0.14030       -2.72300        2.05020
H          0.16790        0.78750        2.34810
