16
gdb 15761	5.58216	0.95433	0.87497	3.3182	78.04	-0.2522	-0.0458	0.2065	1342.7632	0.128587	-346.588415	-346.57952	-346.578576	-346.624908	30.076
C          0.02630        1.44620       -0.02310
C          0.02800       -0.00630       -0.00660
C          0.00880       -1.21330        0.00730
C         -0.00630       -2.66150        0.02400
O         -1.04790       -3.29320        0.04930
C          1.32910       -3.32360        0.00810
C          1.45750       -4.63880        0.76530
C          1.43140       -4.65580       -0.72300
H          1.04330        1.85150       -0.03430
H         -0.49900        1.82270       -0.90770
H         -0.48800        1.84310        0.85890
H          2.18860       -2.66500       -0.01450
H          2.39420       -4.81990        1.27950
H          0.56360       -4.96580        1.28370
H          0.52000       -4.99410       -1.20220
H          2.34960       -4.84880       -1.26540
