17
gdb 3989	5.45788	0.7921	0.70068	0.8541	81.69	-0.2238	-0.0207	0.2031	1600.6745	0.139078	-363.807196	-363.797334	-363.796389	-363.843771	33.471
C         -0.04220        1.53940        0.06350
C          0.05680        0.00520       -0.01890
C          0.72470       -0.46040       -1.22780
C          1.28290       -0.80650       -2.24090
C          1.92950       -1.30010       -3.40870
C          2.07740       -2.79130       -3.59750
N          2.35890       -0.42590       -4.25290
O          2.96870       -1.05010       -5.34510
H          0.95210        1.99350        0.05290
H         -0.60370        1.93820       -0.78530
H         -0.54950        1.83770        0.98560
H          0.59190       -0.37780        0.86010
H         -0.94900       -0.43260        0.02990
H          1.59050       -3.10270       -4.52710
H          3.13540       -3.05500       -3.69300
H          1.64160       -3.33460       -2.75950
H          3.23660       -0.29770       -5.88340
