22
gdb 13897	2.59333	1.60629	1.20691	1.4519	78.27	-0.2519	0.0739	0.3258	1119.3417	0.198084	-350.197442	-350.187308	-350.186364	-350.23221	36.878
C         -2.06900        0.62850        1.79840
C         -1.32820       -0.48010        1.04600
O         -1.13570       -0.12540       -0.32650
C         -0.01380       -0.82910        1.71560
C          0.13630       -1.93460        2.74770
C         -1.01920       -2.78650        3.23230
C          0.76170       -2.08520        1.37590
C          0.28180       -3.08360        0.34240
H         -1.44990        1.53200        1.86270
H         -2.99580        0.88690        1.27890
H         -2.31140        0.31770        2.81990
H         -1.97500       -1.36080        1.00020
H         -0.48820        0.58770       -0.35160
H          0.59390        0.05700        1.90340
H          0.84190       -1.70520        3.54310
H         -1.71610       -3.05590        2.43540
H         -0.64960       -3.72140        3.66820
H         -1.59280       -2.26720        4.00850
H          1.84130       -1.95280        1.35740
H         -0.79620       -3.25350        0.38300
H          0.51090       -2.73080       -0.66790
H          0.77230       -4.05310        0.48390
