16
gdb 10026	3.33905	1.11045	0.86881	3.2729	74.57	-0.2508	0.0105	0.2613	1327.962	0.128718	-342.755891	-342.746214	-342.74527	-342.79264	32.076
C          0.17020        1.49340        0.06680
N         -0.20320        0.11330       -0.23490
C          0.65830       -0.54140       -1.21700
C          2.09450       -0.57110       -0.81020
N          3.19060       -0.54610       -0.44400
C          0.19680       -1.89940       -1.50710
C         -0.17770       -3.01910       -1.73430
C         -0.63300       -4.37260       -2.01220
H          1.19920        1.61470        0.43920
H          0.06170        2.10210       -0.83770
H         -0.52050        1.88560        0.81720
H         -0.22290       -0.44710        0.61070
H          0.61230        0.06060       -2.13630
H         -0.74070       -4.53920       -3.08910
H          0.07520       -5.11370       -1.62700
H         -1.60530       -4.56330       -1.54570
