12
gdb 3955	7.66219	2.09529	1.66247	3.71	50.79	-0.2544	0.0172	0.2715	692.3367	0.092473	-356.712771	-356.706413	-356.705469	-356.744336	21.546
O         -0.14400        1.42030        0.01050
C         -0.00130        0.00800        0.00260
C         -1.37710       -0.57590        0.01330
N         -1.70460       -1.85570        0.01280
C         -3.06710       -1.81270        0.02480
N         -3.59650       -0.60030        0.03250
N         -2.48970        0.18100        0.02490
H          0.73080        1.81730        0.00570
H          0.53430       -0.34690       -0.89010
H          0.55160       -0.35540        0.88120
H         -3.68310       -2.69940        0.02780
H         -2.55130        1.18570        0.02850
