17
gdb 1241	6.56457	1.20513	1.07687	4.2551	65.88	-0.2467	0.0239	0.2706	1084.6075	0.147574	-305.906809	-305.898377	-305.897433	-305.939892	29.501
C          0.02540        1.49600       -0.07010
C          0.03290       -0.03350        0.02320
C          0.70280       -0.50170        1.31580
N         -1.33940       -0.56060       -0.00170
C         -1.98770       -0.47310       -1.30560
C         -3.28320       -1.15710       -1.29190
N         -4.29430       -1.71550       -1.28810
H          1.04760        1.88260       -0.01700
H         -0.40660        1.85240       -1.01020
H         -0.55410        1.92260        0.75450
H          0.61820       -0.42530       -0.83150
H          0.15030       -0.13520        2.18670
H          0.73990       -1.59550        1.37060
H          1.72960       -0.13040        1.37440
H         -1.32900       -1.53210        0.29170
H         -2.16480        0.57810       -1.55910
H         -1.38950       -0.89720       -2.13430
