14
gdb 792	6.12319	1.43744	1.3165	0.4796	62.57	-0.2492	0.0065	0.2556	906.4382	0.110179	-324.50612	-324.49791	-324.496966	-324.539	28.728
C          0.05330        1.51760       -0.02120
C          0.05580        0.01770       -0.08400
C          0.05410       -0.77660        1.21040
C          1.20750       -0.49210        2.06030
C          2.15870       -0.24420        2.75170
N          0.03210       -0.69060       -1.14630
O         -0.01420        0.08960       -2.31050
H          0.43860        1.94590       -0.94640
H         -0.96900        1.88970        0.12190
H          0.65280        1.86110        0.82550
H         -0.86590       -0.54930        1.76840
H          0.01900       -1.84060        0.95650
H          3.00010       -0.03720        3.36550
H          0.02460       -0.58010       -3.00130
