17
gdb 16495	2.88101	2.5777	1.77007	2.195	67.1	-0.2165	0.07	0.2865	795.2825	0.142323	-363.778186	-363.771124	-363.77018	-363.80893	28.072
C         -0.08170        1.60580       -0.08600
C          0.07160        0.09950        0.03120
N          1.09130       -0.61920       -0.85750
C          2.41930        0.00430       -0.45270
C          2.25680       -0.62710        0.91310
C          1.29390       -1.61710        0.30540
C          0.73350       -0.58320        1.22010
O          0.23510       -0.80110        2.48730
H          0.80060        2.15270        0.25650
H         -0.28060        1.88820       -1.12550
H         -0.93230        1.93880        0.51830
H         -0.88930       -0.38480       -0.17490
H          3.21270       -0.46080       -1.04470
H          2.48200        1.09140       -0.56110
H          2.96880       -0.79640        1.71240
H          1.23610       -2.69360        0.23900
H          0.47960       -0.05500        3.04590
