11
gdb 20306	6.18977	1.63033	1.29044	2.6219	68.28	-0.2448	-0.0834	0.1614	852.5439	0.072888	-356.412569	-356.406345	-356.405401	-356.442996	22.771
C          0.01480       -1.18110       -0.00370
C          0.02500        0.02170        0.00250
C         -0.01190        1.44430        0.01060
C         -1.23330        2.14190        0.03060
N         -1.26190        3.46320        0.03810
C         -0.05820        4.04760        0.02510
N          1.12630        3.43590        0.00600
N          1.15550        2.11110       -0.00140
H          0.02280       -2.24360       -0.00940
H         -2.17950        1.60700        0.04040
H         -0.02820        5.13290        0.03050
