18
gdb 16574	2.95566	2.61004	2.14205	2.3341	65.63	-0.2492	0.0793	0.3284	744.7924	0.15812	-384.958391	-384.952355	-384.95141	-384.988188	25.045
C         -0.03650        1.53920       -0.11000
O          1.32960        1.97460        0.00950
C          2.16850        0.83230        0.06890
C          1.36980       -0.26190       -0.64300
C          0.01220        0.00870        0.02950
C          0.13040       -0.42290        1.50620
C          1.26910        0.34610        2.20100
O          2.44610        0.44850        1.40150
H         -0.63580        2.02860        0.66630
H         -0.42730        1.84090       -1.09090
H          3.13250        1.09010       -0.37340
H          1.33680       -0.07930       -1.72190
H          1.77290       -1.25830       -0.45440
H         -0.83410       -0.47700       -0.46190
H         -0.80450       -0.23910        2.04840
H          0.32160       -1.50140        1.54570
H          0.92550        1.35530        2.46560
H          1.57560       -0.15330        3.12380
