15
gdb 11811	3.71127	1.78523	1.37504	2.6139	62.53	-0.245	0.0206	0.2656	889.4345	0.117725	-399.791792	-399.783951	-399.783007	-399.824088	28.618
O          0.00520        1.40110       -0.17190
C          0.01930        0.00220       -0.06920
C          0.17460       -0.56920        1.37170
O          0.98550       -0.45040        2.25190
N         -1.02520       -1.22700        1.26270
C         -1.37070       -0.65650       -0.03270
C         -2.66880       -0.04040       -0.42560
C         -2.16070       -1.29900       -1.12230
H          0.75710        1.73410        0.33160
H          0.70300       -0.46280       -0.79320
H         -1.57760       -1.72040        1.94960
H         -3.51220       -0.14500        0.24920
H         -2.63010        0.90340       -0.95830
H         -1.79600       -1.21720       -2.14100
H         -2.66760       -2.23340       -0.90350
