18
gdb 17105	4.51964	1.50665	1.4193	1.9436	72.56	-0.2244	0.0082	0.2326	960.7985	0.154529	-347.760797	-347.753592	-347.752648	-347.792484	27.857
C          0.19120        1.51560       -0.12270
C         -0.07900        0.02110        0.13130
C          0.66470       -0.51870        1.30490
C          0.27200       -1.03850        2.47240
C          1.61860       -1.36780        3.13920
C          2.42410       -0.05620        2.89240
C          2.20510       -0.61610        1.45560
O          2.36680       -1.95890        2.02020
H          1.25560        1.70430       -0.29720
H         -0.35760        1.86490       -1.00240
H         -0.11870        2.11990        0.73540
H         -1.15320       -0.13960        0.27630
H          0.20150       -0.54490       -0.76830
H         -0.71790       -1.20690        2.87120
H          1.65260       -1.94250        4.06370
H          1.96950        0.89900        3.16360
H          3.46450       -0.12890        3.21830
H          2.85310       -0.39820        0.60650
