20
gdb 16367	2.58799	2.02981	1.37112	1.7437	74.78	-0.2517	0.0755	0.3272	990.3109	0.176	-348.983416	-348.974991	-348.974047	-349.015946	32.027
C         -0.61990        0.95720       -1.50590
C          0.25410       -0.15520       -0.94820
C          1.77630       -0.18610       -1.28990
C          2.08770       -0.61880        0.17660
C          3.29300       -0.03210        0.89440
C          0.67320       -0.14010        0.52730
C          0.25450        0.77870        1.58850
O         -0.10920       -0.61070        1.60890
H         -0.18620        1.94230       -1.30160
H         -0.73350        0.86120       -2.59100
H         -1.62260        0.93130       -1.06530
H         -0.19300       -1.13160       -1.17030
H          2.09700       -0.85690       -2.08920
H          2.15830        0.81900       -1.49840
H          2.10780       -1.71340        0.24110
H          3.29640        1.06180        0.83470
H          3.29840       -0.31290        1.95340
H          4.22790       -0.39320        0.45250
H          0.96410        1.08540        2.35600
H         -0.56740        1.47260        1.41660
