16
gdb 16457	3.30095	2.90657	1.89862	1.3006	68.15	-0.223	0.0039	0.2268	722.6217	0.131569	-346.542904	-346.536837	-346.535893	-346.572481	25.663
O         -0.07430        1.40620        0.07290
C          0.01110        0.01640        0.04920
C          0.91640       -0.71500        1.03880
C          0.68920       -2.00200        0.77700
C         -0.33480       -1.96730       -0.34830
C         -1.33080       -0.78700       -0.03800
C         -1.42850       -0.46940       -1.55000
C          0.06520       -0.79330       -1.31280
H          0.79720        1.76730       -0.12010
H          1.55860       -0.24690        1.77200
H          1.10720       -2.88620        1.23720
H         -0.72560       -2.89130       -0.77210
H         -2.12600       -0.79000        0.71200
H         -1.99090       -1.17870       -2.16300
H         -1.66590        0.56290       -1.81110
H          0.88600       -0.80280       -2.03610
