15
gdb 17141	4.24134	2.03161	1.65049	1.7053	72.77	-0.2346	0.0206	0.2553	794.766	0.118887	-325.390179	-325.383795	-325.382851	-325.420409	25.61
C          0.02930       -1.11280       -0.05520
C          0.00270        0.08840        0.00740
C         -0.01850        1.51530        0.10020
C         -0.76320        2.42310        1.09360
C         -0.10480        3.36570        0.08680
C          1.18820        2.51190       -0.05550
C          0.99490        2.49400       -1.56510
N         -0.45910        2.42970       -1.10410
H          0.04740       -2.17310       -0.11390
H         -1.85370        2.36300        1.06220
H         -0.38100        2.43850        2.11680
H         -0.19890        4.44550       -0.02700
H          2.09470        2.54290        0.55780
H          1.22760        3.40670       -2.12270
H          1.31610        1.60670       -2.11810
