14
gdb 10128	2.99039	1.5034	1.17139	4.4845	56.	-0.276	-0.0496	0.2264	1005.449	0.104027	-456.829588	-456.821087	-456.820142	-456.863299	28.621
O          0.09840        1.41710        0.12550
C          0.06630        0.01560       -0.01810
C         -1.37100       -0.50550        0.00770
O         -1.88460       -0.19710        1.29820
C         -3.09530       -0.70500        1.64610
O         -3.61900       -0.42740        2.67890
C         -2.20760        0.14930       -1.09040
O         -3.29430        0.62380       -0.90550
H         -0.34280        1.62900        0.95690
H          0.52140       -0.21820       -0.98610
H          0.64320       -0.50090        0.76190
H         -1.37200       -1.59360       -0.17070
H         -3.49880       -1.40920        0.89840
H         -1.73200        0.12850       -2.09470
