15
gdb 3580	4.73427	2.85835	2.4164	1.4934	59.63	-0.2047	0.0726	0.2773	610.6606	0.125533	-308.429953	-308.42401	-308.423066	-308.459223	23.944
O         -0.05040        1.49400       -0.15900
C         -0.11860        0.10450        0.01980
C         -0.47510       -0.65510        1.26740
C         -1.68030       -0.13360        2.09490
C         -2.32150        1.13230        1.58240
C         -2.56420       -0.16980        0.86480
C         -1.37940       -0.69060        0.00740
H          0.69550        1.81520        0.36010
H          0.66570       -0.42450       -0.52980
H          0.17300       -1.43690        1.64650
H         -1.89510       -0.52960        3.07890
H         -3.16870        1.45330        2.18340
H         -1.75000        1.92840        1.13030
H         -3.55180       -0.60130        0.76890
H         -1.51550       -1.50340       -0.69600
