15
gdb 13360	5.83455	1.07085	1.00212	2.1772	70.44	-0.2492	0.0192	0.2683	1182.9453	0.118868	-362.649753	-362.64167	-362.640726	-362.684799	27.196
C          0.11300        1.56080       -0.10580
C          0.00160        0.11130       -0.04700
C         -0.10110       -1.08740       -0.00150
C         -0.18210       -2.53560        0.06530
C          0.58920       -3.18400        1.26460
N         -0.43570       -3.89760        2.03860
C         -1.52870       -3.70260        1.43120
O         -1.56310       -2.96430        0.29690
H          0.78120        1.94190        0.67380
H          0.50430        1.89070       -1.07420
H         -0.86550        2.03260        0.03530
H          0.11810       -2.97570       -0.89110
H          1.35780       -3.88320        0.92180
H          1.07510       -2.42750        1.88680
H         -2.49550       -4.08610        1.73900
