22
gdb 13285	6.83147	0.77449	0.72936	1.0208	79.84	-0.2496	0.0877	0.3373	1612.2349	0.199995	-350.185942	-350.176683	-350.175739	-350.220669	33.076
C         -0.00830        1.39940       -0.03710
O          0.00830        0.00010        0.09420
C         -1.27630       -0.57690       -0.00350
C         -1.14810       -2.08780        0.14290
C         -2.48410       -2.81040        0.03980
C         -3.21640       -2.88240       -1.33390
C         -3.62320       -4.34210       -0.99780
C         -2.49960       -4.36510        0.07330
H          1.02290        1.75090        0.05120
H         -0.40810        1.71580       -1.01430
H         -0.61460        1.87880        0.74870
H         -1.93930       -0.17040        0.78120
H         -1.73720       -0.32090       -0.97380
H         -0.46380       -2.45770       -0.63130
H         -0.67590       -2.30580        1.10910
H         -3.17460       -2.42340        0.80010
H         -4.01290       -2.16080       -1.53250
H         -2.50080       -2.84540       -2.16270
H         -4.61700       -4.39080       -0.54320
H         -3.57530       -5.08100       -1.80110
H         -1.56810       -4.77620       -0.32980
H         -2.70790       -4.85320        1.02880
