13
gdb 21144	5.12804	1.75007	1.31543	2.8814	66.59	-0.2501	-0.0985	0.1516	876.7777	0.094984	-394.741138	-394.734027	-394.733082	-394.773678	24.816
C         -0.06280        1.42480        0.00800
N          0.00680       -0.02570        0.00290
C         -1.06260       -0.69120        0.00920
O         -2.30360       -0.01270        0.02150
N         -3.51210       -0.67980        0.02790
C         -3.44830       -1.96210        0.02270
C         -2.18810       -2.68050        0.01100
N         -1.05480       -2.08040        0.00460
H          0.95200        1.82750        0.00010
H         -0.60110        1.81140       -0.86740
H         -0.58480        1.80570        0.89580
H         -4.40320       -2.47680        0.02790
H         -2.19530       -3.76980        0.00750
