14
gdb 20448	6.22369	1.38017	1.21861	4.0345	63.12	-0.2462	-0.0089	0.2374	951.1238	0.109271	-378.681534	-378.675074	-378.67413	-378.712836	23.709
C          0.03070        1.55640       -0.00460
N          1.25120        0.73970        0.01270
C         -0.05680        0.06560        0.02710
C         -0.38790       -0.67760        1.25990
C          0.37450       -0.85170        2.37340
O         -0.28000       -1.58190        3.28800
N         -1.52980       -1.92450        2.78420
C         -1.57980       -1.38530        1.59150
H         -0.15570        2.11520        0.90760
H         -0.25080        2.06550       -0.92280
H          1.66090        0.69290       -0.91580
H         -0.39200       -0.40470       -0.89550
H          1.36770       -0.52420        2.63380
H         -2.47190       -1.51810        0.99490
