14
gdb 20388	4.91822	2.09046	1.50277	5.2269	63.41	-0.2036	0.0139	0.2176	785.5654	0.111586	-374.885692	-374.879689	-374.878745	-374.915759	23.14
C          0.01240        1.43810        0.04200
C          1.51000        1.89820       -0.06260
C          2.20640        0.57470        0.06380
C          1.29320       -0.43690       -0.05620
N         -0.01430       -0.03060       -0.28490
N          2.01570       -1.56670       -0.02960
N          3.35810       -1.25260        0.12130
N          3.44880        0.04740        0.15840
H         -0.35380        1.59970        1.06320
H         -0.64180        1.97870       -0.64530
H          1.70710        2.37480       -1.03030
H          1.75420        2.62650        0.71540
H         -0.73790       -0.53740        0.20960
H          1.74370       -2.53410       -0.07390
