21
gdb 8910	3.38399	1.23194	0.96462	4.0584	79.03	-0.3104	0.0385	0.3489	1254.2468	0.187411	-329.158611	-329.148722	-329.147778	-329.193251	35.662
C         -0.11380        1.58950       -0.02260
C          0.03880        0.06420        0.00190
C          0.75640       -0.48240        1.25140
C          0.02910       -0.09390        2.54660
C          0.92840       -2.02970        1.16280
C          1.67760       -2.52430       -0.09280
C          1.62130       -2.53530        2.35480
N          2.18500       -2.93410        3.28230
H          0.85640        2.08570        0.09390
H         -0.53980        1.91640       -0.97590
H         -0.77150        1.95200        0.77190
H         -0.95290       -0.40420       -0.07390
H          0.58940       -0.23650       -0.89510
H          1.76700       -0.05080        1.27980
H          0.52810       -0.51180        3.42470
H         -0.00440        0.99080        2.67110
H         -1.00460       -0.46110        2.53920
H         -0.07450       -2.47940        1.16910
H          2.64600       -2.02420       -0.18840
H          1.85760       -3.60030       -0.03190
H          1.09470       -2.33020       -0.99470
