17
gdb 8600	4.95679	1.77166	1.67382	2.4842	70.65	-0.2068	0.0638	0.2705	838.4504	0.141264	-363.702624	-363.695919	-363.694974	-363.733052	26.888
C         -0.06140        1.56200        0.00700
N          0.03960        0.12100        0.06480
C         -1.19620       -0.65620        0.44700
C         -0.24290       -1.59270        1.20850
C          0.51710       -2.33150        2.34070
C          1.52760       -1.84600        1.21170
O          0.59440       -2.35050        0.21910
C          0.77450       -0.46750        1.21210
H          0.92600        1.98860       -0.19770
H         -0.72740        1.85390       -0.81190
H         -0.44800        2.02030        0.93850
H         -1.86870       -0.09250        1.11110
H         -1.75070       -1.08620       -0.39120
H          0.54460       -1.85380        3.32360
H          0.39930       -3.41450        2.38650
H          2.58170       -2.11660        1.10330
H          0.87560        0.18030        2.09020
