18
gdb 16105	4.23259	1.61488	1.41925	0.985	78.34	-0.2338	0.0547	0.2886	936.4327	0.154999	-310.644117	-310.636845	-310.635901	-310.675173	29.206
C          0.02100       -1.20440       -0.27910
C          0.02690       -0.01260       -0.10990
C          0.01620        1.40190        0.11230
C          0.24880        2.34100       -1.06400
C          1.28740        2.24930        0.01770
C          1.24990        3.27910        1.13480
C         -0.23780        3.36250        1.55010
C         -0.81720        1.95760        1.27190
H          0.01980       -2.25450       -0.43370
H          0.47880        1.86920       -2.01190
H         -0.36860        3.22980       -1.14570
H          2.22950        1.77080       -0.22370
H          1.86270        2.92260        1.97110
H          1.65060        4.25310        0.83310
H         -0.36270        3.66120        2.59390
H         -0.75710        4.11350        0.94690
H         -1.88840        1.98050        1.04790
H         -0.68080        1.30240        2.13910
