15
gdb 13044	4.25977	1.27993	1.03063	3.3277	62.87	-0.2516	-0.0265	0.2251	1076.5192	0.118076	-399.802289	-399.794484	-399.79354	-399.835572	27.045
N         -0.16510        1.17940       -0.31980
C         -0.05220       -0.03710       -0.03990
O          1.02710       -0.76420        0.41390
C          0.21950       -1.97820        0.52030
C         -1.00900       -1.21820       -0.03130
C         -2.25290       -1.10230        0.85470
C         -3.27880       -0.13470        0.28550
O         -4.44260       -0.40870        0.13990
H          0.71160        1.68500       -0.18220
H          0.62470       -2.77570       -0.10600
H          0.14700       -2.30690        1.56040
H         -1.28360       -1.53340       -1.04190
H         -2.73460       -2.07530        0.98890
H         -1.95550       -0.72670        1.84400
H         -2.87250        0.86060        0.01100
