19
gdb 5520	2.94394	1.81574	1.22674	1.6904	79.08	-0.1895	0.0508	0.2403	1038.4708	0.166038	-327.977758	-327.969081	-327.968137	-328.011558	31.686
C          0.21530        1.62110       -0.14970
C         -0.02760        0.11170        0.03940
C          0.61820       -0.46040        1.26290
C          0.10770       -0.79190        2.50500
C         -1.31650       -0.66950        2.96060
C          1.19920       -1.26810        3.29440
C          2.33340       -1.21300        2.52360
N          1.97260       -0.71970        1.29580
H          1.28480        1.84450       -0.22490
H         -0.26930        1.98670       -1.06100
H         -0.17910        2.18650        0.69980
H         -1.10470       -0.07600        0.09080
H          0.32620       -0.42400       -0.85270
H         -1.66690       -1.59480        3.43230
H         -1.44410        0.13160        3.69940
H         -1.99270       -0.45130        2.12870
H          1.14380       -1.61520        4.31570
H          3.35420       -1.48700        2.73670
H          2.59650       -0.59140        0.51850
