16
gdb 20151	4.11444	2.36758	2.03564	1.7019	65.22	-0.2205	0.0813	0.3018	708.0179	0.132648	-346.552295	-346.546502	-346.545558	-346.581797	24.516
O          0.03340        1.41940        0.02640
C          0.03820        0.00320       -0.02330
C          0.60980       -0.66540        1.21600
C         -0.49000       -0.88430        2.24570
C          0.01700       -2.03990        1.41040
C         -1.30020       -2.01530        0.58050
C         -1.80380       -0.85980        1.41800
C         -1.34380       -0.62880       -0.01480
H         -0.46000        1.66860        0.81660
H          0.60200       -0.25480       -0.92580
H          1.62040       -0.45730        1.54560
H         -0.38380       -0.70160        3.30590
H          0.57720       -2.91470        1.70990
H         -1.83530       -2.86960        0.18990
H         -2.80080       -0.65650        1.78310
H         -2.07140       -0.38820       -0.78030
