16
gdb 12974	2.40208	2.22667	1.87695	2.5801	59.94	-0.2386	0.0613	0.2999	813.8898	0.12982	-420.833755	-420.826082	-420.825138	-420.865107	29.832
O         -0.21770        1.45290        0.05300
C         -0.14870        0.04410        0.04340
C         -0.48340       -0.80580        1.24440
C         -1.55650       -0.10780        2.08460
C         -2.51040       -0.10560        0.83580
O         -3.06640        1.09790        0.37820
C         -1.40130       -0.76490        0.00460
O         -1.60650       -1.76550       -0.92830
H          0.48020        1.78970        0.62550
H          0.64450       -0.36160       -0.58380
H          0.17770       -1.59600        1.57820
H         -1.93340       -0.71440        2.91000
H         -1.29530        0.88510        2.46040
H         -3.33890       -0.80390        0.97980
H         -2.32020        1.68750        0.20680
H         -1.80610       -1.35190       -1.77600
