16
gdb 12603	3.09002	2.21956	1.32354	0.4022	67.67	-0.2539	-0.0033	0.2506	896.5326	0.132003	-379.989304	-379.981616	-379.980671	-380.022046	27.606
C         -0.02140        1.46210        0.00850
N         -0.01710        0.01540        0.00040
C         -1.17750       -0.76360        0.00370
N         -2.38610       -0.37640        0.01390
C         -0.75220       -2.22280       -0.00730
C          0.78520       -2.19640       -0.01660
C          1.16340       -0.72060       -0.01120
O          2.27230       -0.24150       -0.01550
H          1.01850        1.79020        0.00170
H         -0.53470        1.85510       -0.87570
H         -0.52000        1.84540        0.90520
H         -2.46360        0.64130        0.02030
H         -1.16600       -2.72540        0.86980
H         -1.17670       -2.71530       -0.88500
H          1.23630       -2.67620        0.85580
H          1.22560       -2.66710       -0.89930
