16
gdb 3577	4.78639	2.83227	2.41347	0.8987	63.71	-0.2085	0.069	0.2774	630.0485	0.136945	-288.53378	-288.527585	-288.52664	-288.563394	24.508
C         -0.08070        1.55680       -0.03150
N          0.17400        0.12180        0.03020
C          1.29560       -0.66490       -0.38420
C          2.71580       -0.22380        0.12180
C          2.73860        1.02360        0.96200
C          2.20570       -0.25260        1.55350
C          0.79120       -0.69350        1.03180
H          0.59930        2.06330       -0.72430
H         -1.10370        1.71930       -0.39260
H          0.00200        2.02950        0.95270
H          1.17180       -1.39160       -1.18120
H          3.62010       -0.67460       -0.26620
H          3.73070        1.28540        1.32080
H          2.11930        1.88350        0.75870
H          2.66690       -0.72840        2.40940
H          0.20080       -1.44660        1.54440
