10
gdb 440	8.65423	3.76058	2.66467	2.525	43.5	-0.25	-0.0182	0.2318	452.4227	0.075083	-301.395982	-301.391168	-301.390224	-301.424079	17.274
O          0.00680       -0.02630        0.00350
C         -0.03020        1.17760        0.01060
C         -1.22230        2.14530        0.03140
N         -0.66930        3.50360        0.03090
C          0.59870        3.35710        0.01280
N          1.06140        2.04610       -0.00030
H         -1.86380        1.98310       -0.84150
H         -1.84010        1.97420        0.91960
H          1.30880        4.17780        0.00710
H          2.02190        1.74420       -0.01520
