16
gdb 11766	4.65198	1.73576	1.58229	1.8939	71.12	-0.2386	0.0344	0.273	844.6848	0.131161	-346.545252	-346.538666	-346.537722	-346.575649	26.719
C         -0.02250       -1.18300       -0.05900
C         -0.00690        0.01800       -0.02640
C          0.04520        1.45440        0.05300
C         -0.26230        2.26740        1.34670
C          0.40990        3.39370        0.50320
C          1.36030        2.28530       -0.04460
C         -0.58600        3.48900       -0.65710
O         -0.80550        2.08560       -0.93110
H         -0.04230       -2.24420       -0.09470
H         -1.31550        2.37030        1.61690
H          0.33860        1.95230        2.20010
H          0.77540        4.32080        0.94130
H          2.11600        1.97190        0.67610
H          1.78660        2.40440       -1.04300
H         -1.53260        3.96890       -0.38290
H         -0.17690        3.98390       -1.54550
