13
gdb 21564	3.96952	1.89689	1.28578	6.4501	64.76	-0.2187	-0.0318	0.1869	868.6108	0.098105	-394.807898	-394.80117	-394.800226	-394.838588	25.675
N          0.09080        1.37900        0.15110
C         -0.03110       -0.00000        0.05040
C         -1.21040       -0.68870        0.02100
C         -1.20830       -2.13360       -0.00920
O         -2.20250       -2.85110       -0.03560
C          0.15960       -2.70330       -0.02510
N          1.26350       -2.03090        0.00070
N          1.15170       -0.68540        0.03390
H          0.82050        1.78900       -0.41740
H         -0.78470        1.86650        0.02430
H         -2.15570       -0.15940        0.00750
H          0.25730       -3.78430       -0.05710
H          2.02630       -0.20220        0.16030
