20
gdb 16392	2.97787	2.24481	1.70066	1.6255	73.45	-0.2418	0.0851	0.327	868.7153	0.178384	-348.990977	-348.98355	-348.982605	-349.022133	29.703
C         -0.10450        1.53020       -0.10860
C          0.03950        0.01230       -0.02200
C          0.99620       -0.56180       -1.09480
C          1.20390       -2.03100       -0.67560
C          1.93480       -1.27600        0.45280
O          2.31310       -0.25710       -0.52970
C          0.80340       -0.56890        1.23750
C          1.33030        0.43830        2.25730
H          0.87440        2.01570       -0.14070
H         -0.64800        1.80880       -1.01830
H         -0.66020        1.93670        0.74180
H         -0.95090       -0.44790       -0.11030
H          0.87300       -0.23930       -2.12990
H          0.33320       -2.64580       -0.43130
H          1.89540       -2.55440       -1.33650
H          2.77730       -1.68840        1.01020
H          0.17860       -1.30740        1.75220
H          2.05020        1.12110        1.79810
H          0.52460        1.03510        2.69550
H          1.83650       -0.08170        3.07820
