12
gdb 3786	7.90839	2.00482	1.62366	4.3688	52.59	-0.2206	-0.0314	0.1892	717.2421	0.090623	-356.659922	-356.653641	-356.652696	-356.690236	22.158
C          0.04100        1.40750        0.10460
N         -0.17840       -0.00840       -0.12650
C          0.53240       -0.62140       -1.13270
C          1.20170       -0.13500       -2.21650
O          1.67100       -1.18770       -2.91510
N          1.28570       -2.33950       -2.22710
N          0.62860       -1.99520       -1.20170
H          1.09500        1.66070        0.29950
H         -0.29040        1.98110       -0.76820
H         -0.56030        1.72720        0.95750
H         -0.24140       -0.57900        0.70390
H          1.41260        0.84590       -2.60230
