20
gdb 8205	2.63045	2.38098	1.62315	1.3176	74.46	-0.2208	0.0845	0.3054	895.8697	0.176994	-349.008053	-348.999996	-348.999052	-349.039714	31.511
C         -0.03770        1.52360       -0.05370
C         -0.00810        0.01600        0.01010
C          1.28390       -0.74430       -0.27620
C          0.66040       -0.78370        1.10220
C          1.34630       -0.23780        2.32170
O         -0.12480       -1.91530        1.41390
C         -1.06460       -2.11930        0.36200
C         -1.29210       -0.74520       -0.29970
H          0.90410        1.96040        0.29260
H         -0.19960        1.87230       -1.08070
H         -0.84460        1.93310        0.56560
H          1.26240       -1.63330       -0.89840
H          2.18180       -0.14550       -0.39490
H          1.91730        0.66220        2.07980
H          0.61460        0.00990        3.09750
H          2.03960       -0.97760        2.73500
H         -0.66920       -2.84200       -0.36570
H         -1.97060       -2.54940        0.79830
H         -2.13790       -0.22140        0.16120
H         -1.50270       -0.83840       -1.37030
