17
gdb 12328	2.81033	2.2894	1.44407	2.9337	71.61	-0.2508	0.0121	0.2629	892.3745	0.143177	-363.881658	-363.873936	-363.872992	-363.914574	28.267
C         -0.10260        1.52450        0.04140
C          0.06560       -0.01250       -0.00260
C          0.78090       -0.44830       -1.24840
C          1.98950       -0.99470       -1.22390
C          2.73310       -1.24160        0.04630
O          2.07370       -0.80180        1.23520
C          0.74410       -0.49630        1.26620
N          0.09910       -0.52170        2.35580
H          0.87220        2.02000        0.08450
H         -0.62170        1.87600       -0.85610
H         -0.68210        1.81120        0.92120
H         -0.93990       -0.44810        0.01070
H          0.27020       -0.27400       -2.19190
H          2.49980       -1.29600       -2.13430
H          2.94500       -2.31560        0.16140
H          3.70600       -0.73280        0.02830
H          0.70540       -0.84020        3.11440
