24
gdb 13893	2.54273	1.58709	1.18639	0.1405	85.27	-0.2569	0.0766	0.3335	1169.9625	0.221631	-314.271967	-314.261684	-314.260739	-314.306613	38.011
C          0.19620        1.42000        0.22890
C         -0.24980       -0.02300       -0.05550
C         -1.75230       -0.07760       -0.37400
C          0.56150       -0.61980       -1.19480
C          1.94850       -1.21180       -1.02550
C          2.66400       -1.29460        0.30770
C          0.78000       -2.10900       -1.38790
C          0.23150       -3.16250       -0.44670
H          1.25610        1.46520        0.49690
H          0.04970        2.05310       -0.65450
H         -0.38070        1.85890        1.05020
H         -0.08180       -0.60840        0.85590
H         -1.97790        0.49460       -1.28200
H         -2.08900       -1.10560       -0.53800
H         -2.34640        0.34830        0.44180
H          0.42030       -0.06210       -2.12050
H          2.63010       -1.00550       -1.84800
H          1.98590       -1.47080        1.14580
H          3.39720       -2.10940        0.30530
H          3.20770       -0.36680        0.51830
H          0.76760       -2.43560       -2.42560
H          0.20620       -2.83310        0.59460
H         -0.79110       -3.44130       -0.72490
H          0.84030       -4.07320       -0.48540
