19
gdb 1890	4.81663	2.02164	1.57387	1.2058	67.6	-0.2459	0.0852	0.3311	851.3752	0.172079	-310.942587	-310.934911	-310.933967	-310.974709	28.329
C          0.01940        1.56690        0.17160
C          0.11180        0.05620        0.05070
C          0.80630       -0.46910       -1.22840
C          1.58760       -1.71310       -0.73880
C          1.26570       -1.77830        0.77340
C          2.40780       -2.22920        1.66660
O          0.89260       -0.45160        1.12600
H          1.01790        2.01310        0.12560
H         -0.58460        1.97980       -0.64240
H         -0.44190        1.85250        1.12120
H         -0.90230       -0.37820        0.11010
H          0.08230       -0.70120       -2.01370
H          1.48760        0.28950       -1.62540
H          1.29370       -2.63170       -1.25330
H          2.66360       -1.58370       -0.88950
H          0.39780       -2.44500        0.92490
H          3.27330       -1.57180        1.53660
H          2.11070       -2.20330        2.71880
H          2.70680       -3.25240        1.41840
