18
gdb 10413	2.60185	1.99709	1.43541	0.9857	73.68	-0.253	0.0357	0.2888	951.589	0.151791	-347.748112	-347.739544	-347.7386	-347.780892	31.848
C         -0.09950        1.54570       -0.05420
O         -0.23670        0.13720       -0.06640
C          0.59050       -0.53060       -0.99300
C          2.12940       -0.57370       -0.68000
C          2.10180       -2.10020       -0.95470
C          0.56020       -2.07270       -0.78860
C          0.31070       -0.13490       -2.37500
C          0.08490        0.18780       -3.51150
H          0.92710        1.85230        0.19450
H         -0.37290        1.98980       -1.02020
H         -0.77580        1.91920        0.71780
H          2.78880        0.04950       -1.28580
H          2.28200       -0.35330        0.38000
H          2.39820       -2.33420       -1.97970
H          2.66530       -2.73900       -0.27270
H          0.25100       -2.27840        0.23890
H         -0.05120       -2.65330       -1.48010
H         -0.11940        0.46960       -4.51500
