18
gdb 13794	3.59153	1.22684	1.19207	1.9369	68.84	-0.247	-0.0245	0.2225	1120.2217	0.150736	-384.943875	-384.934699	-384.933754	-384.978491	32.027
C          1.48620        1.03760        0.30400
C          0.30060        0.06800        0.22320
C         -0.02200       -0.30240       -1.20440
O          0.85480       -1.19920       -1.89220
C         -0.48890       -1.62860       -1.66240
C         -0.73650       -2.79510       -0.73330
C          0.46700       -3.53940       -0.19870
O         -1.87730       -3.12560       -0.50210
H          2.38540        0.58450       -0.12380
H          1.28100        1.96080       -0.24860
H          1.70020        1.30920        1.34150
H          0.50960       -0.82910        0.81260
H         -0.59360        0.52890        0.66140
H         -0.33600        0.54280       -1.82220
H         -1.13290       -1.65150       -2.54230
H          1.23120       -2.86130        0.18650
H          0.14980       -4.25040        0.56500
H          0.93640       -4.08210       -1.02890
