14
gdb 15479	2.92842	2.06517	1.48402	4.1601	62.67	-0.2605	-0.0003	0.2602	852.9365	0.107444	-382.548846	-382.541682	-382.540738	-382.580525	26.272
O         -0.00790        0.07420       -0.48420
C          0.03430        1.21620       -0.14280
O         -1.06620        1.92870        0.20650
C         -0.72060        3.27300        0.58500
C          0.64960        3.53590       -0.05170
C          1.28260        2.12960       -0.02600
C          1.99410        1.84110        1.21280
C          2.56160        1.62150        2.24890
H         -1.50980        3.93290        0.22080
H         -0.68160        3.32960        1.67820
H          0.52910        3.86440       -1.08800
H          1.23200        4.28220        0.48880
H          1.93040        1.93480       -0.88440
H          3.07230        1.41210        3.15630
