14
gdb 21167	3.35857	1.88672	1.29028	3.5378	60.44	-0.2087	0.0049	0.2136	910.1918	0.108635	-412.022649	-412.014984	-412.01404	-412.055506	27.141
C          0.28600        1.19680        0.41040
N         -0.43580        0.25550       -0.45880
C          0.34890       -0.60930       -1.22300
C          0.66370       -1.95090       -1.13680
O          0.26290       -2.81310       -0.17580
N          1.43420       -2.31110       -2.18470
N          1.64550       -1.25890       -2.94060
N          0.98340       -0.24050       -2.37280
H          0.93810        0.70410        1.14590
H          0.90360        1.86040       -0.20130
H         -0.44350        1.81490        0.93970
H         -1.10390       -0.28370        0.07820
H          0.60550       -3.68140       -0.42150
H          0.98560        0.66560       -2.81360
