24
gdb 13815	3.53909	1.11302	0.96154	0.0868	85.99	-0.2628	0.0876	0.3504	1358.9361	0.222088	-314.273002	-314.262945	-314.262001	-314.307817	37.279
C         -0.43040        1.54710        0.73460
C         -0.31620        0.02140        0.84130
C         -1.56120       -0.68610        0.34230
C         -1.74670       -0.98490       -1.12860
C         -1.58190       -2.11880       -0.14450
C         -0.36240       -3.02590       -0.17020
C         -0.12700       -3.67170        1.20350
C         -0.50770       -4.09500       -1.26400
H          0.47390        2.04130        1.10350
H         -0.58620        1.85680       -0.30410
H         -1.27720        1.92100        1.32080
H          0.56000       -0.31380        0.27490
H         -0.12750       -0.25530        1.88730
H         -2.46330       -0.37480        0.86630
H         -2.71390       -0.81720       -1.59010
H         -0.90450       -0.77310       -1.78260
H         -2.49750       -2.65990        0.09200
H          0.51850       -2.41890       -0.41540
H         -0.98510       -4.28960        1.49410
H          0.75700       -4.31840        1.19200
H          0.01600       -2.91510        1.98080
H          0.37750       -4.73840       -1.30930
H         -1.37490       -4.73730       -1.06880
H         -0.64790       -3.63840       -2.24870
