19
gdb 15365	6.02972	0.85391	0.81497	3.2066	73.66	-0.2396	-0.0188	0.2208	1427.5896	0.163972	-365.05012	-365.040962	-365.040017	-365.085196	31.948
C         -0.13920        1.51000       -0.45790
C          0.04400        0.14230        0.21050
C         -1.27800       -0.55900        0.42710
N         -1.86940       -1.25860       -0.72640
C         -1.47440       -2.03540        0.46410
C         -0.36840       -3.05770        0.27800
C         -0.88570       -4.29150       -0.43330
O         -0.77210       -5.41940       -0.02650
H          0.82300        2.00630       -0.61470
H         -0.62760        1.39810       -1.43070
H         -0.75980        2.17250        0.15600
H          0.69420       -0.47990       -0.41190
H          0.54670        0.26120        1.17900
H         -1.96920        0.00350        1.05640
H         -2.87660       -1.13100       -0.75660
H         -2.27830       -2.38160        1.11310
H          0.42260       -2.62900       -0.34810
H          0.06600       -3.35780        1.23630
H         -1.40330       -4.07230       -1.39400
