13
gdb 3535	7.49992	2.34074	2.29136	2.5231	52.81	-0.2311	0.0692	0.3003	594.1782	0.101773	-344.345376	-344.339986	-344.339042	-344.374266	21.199
O         -0.00570        1.48210       -0.06300
C          0.06470        0.07520       -0.02990
C          0.05860       -0.61680        1.35100
C         -1.47490       -0.36130        1.52590
O         -1.79390       -1.75180        1.82850
C         -0.76630       -1.81860        0.79570
C         -1.31110       -0.59930       -0.01100
H          0.88100        1.83380        0.06330
H          0.78440       -0.31570       -0.76200
H          0.81320       -0.64780        2.13680
H         -1.99890        0.42750        2.06030
H         -0.43390       -2.79470        0.44600
H         -2.09820       -0.60440       -0.76340
