10
gdb 21745	5.69545	2.31275	1.64483	3.3872	53.42	-0.2573	-0.0498	0.2076	675.6501	0.06346	-413.438529	-413.433628	-413.432684	-413.467554	18.603
O         -0.05640        1.40060        0.01040
C          1.27880        1.71520       -0.00110
N          2.11900        0.71920       -0.01460
C          1.26610       -0.35180       -0.01200
C         -0.03530        0.03620        0.00290
C         -0.77620       -1.15940        0.00370
N          0.05570       -2.18780       -0.01000
O          1.37940       -1.67740       -0.02020
H          1.51180        2.76850        0.00230
H         -1.83770       -1.35400        0.01310
