17
gdb 17216	4.38093	1.80355	1.56309	2.4682	67.41	-0.2189	0.0637	0.2826	851.5826	0.142931	-363.787585	-363.780863	-363.779918	-363.818632	26.13
C         -0.37460        1.38500        0.17080
O          0.97020        0.93900       -0.05570
C         -0.04720       -0.03640        0.04030
C         -0.05120       -1.18420        1.05570
N         -0.46400       -2.14750       -0.01520
C         -1.95180       -2.20280       -0.21070
C         -1.88140       -1.22300       -1.41260
C         -0.38970       -1.04220       -1.06180
H         -0.56730        1.80740        1.15640
H         -0.83620        1.91630       -0.66100
H          0.94700       -1.41490        1.44190
H         -0.74910       -1.10830        1.89710
H         -2.30020       -3.21240       -0.44540
H         -2.52020       -1.83620        0.65250
H         -2.04190       -1.70340       -2.37970
H         -2.50300       -0.32620       -1.35910
H          0.35350       -1.13510       -1.85850
