16
gdb 1986	6.49401	1.59682	1.38628	3.4271	61.82	-0.2378	0.0338	0.2717	894.1601	0.135915	-325.797299	-325.789334	-325.78839	-325.830694	27.6
C          0.03310        1.44840       -0.08430
C          0.26590       -0.05520       -0.14740
O          1.01730       -0.63540        0.61120
N         -0.44690       -0.70660       -1.12230
C         -0.46170       -2.13520       -1.22310
C         -0.60470       -2.74100       -2.59350
C          0.70930       -2.83340       -1.85830
H         -0.33080        1.86870       -1.02610
H         -0.70130        1.66720        0.69810
H          0.96910        1.93490        0.19420
H         -1.15410       -0.19260       -1.62310
H         -0.94230       -2.64870       -0.39380
H         -1.21520       -3.63100       -2.69400
H         -0.65990       -2.06110       -3.43720
H          1.52450       -2.20870       -2.20190
H          1.01090       -3.78790       -1.44370
