13
gdb 19642	6.01501	1.79887	1.70287	4.2732	62.13	-0.2313	-0.0418	0.1895	752.2059	0.094605	-361.337156	-361.331047	-361.330103	-361.367593	22.926
O         -0.03700        0.14050       -0.60480
C          0.13870        1.02140        0.20250
C          1.27560        1.95310        0.15180
C          1.80480        3.12650        1.01160
C          2.54190        3.67590       -0.21860
C          3.19830        2.66550        0.68550
N          2.70080        1.49070       -0.16300
C          2.02500        2.47370       -1.04510
H         -0.57260        1.19810        1.04030
H          1.41320        3.65330        1.86960
H          2.80340        4.69450       -0.46400
H          4.12280        2.66420        1.24710
H          1.83570        2.28430       -2.09460
