16
gdb 21201	6.65466	1.30203	1.11161	1.2335	69.54	-0.2005	0.0101	0.2106	1066.9302	0.132161	-376.102542	-376.094421	-376.093476	-376.135822	28.102
C          0.02750        1.35640        0.20250
N         -0.03540       -0.05350       -0.13800
C         -1.25510       -0.69740       -0.06500
N         -1.34310       -2.02610        0.05800
N         -2.66190       -2.25390        0.03730
C         -3.20270       -3.59010        0.13910
N         -3.42810       -1.18550       -0.08140
C         -2.56070       -0.17050       -0.14690
H          1.06210        1.69600        0.11670
H         -0.56860        1.93930       -0.50760
H         -0.33400        1.58500        1.21750
H          0.71640       -0.61340        0.23690
H         -2.87890       -4.05810        1.07280
H         -4.28820       -3.50420        0.12170
H         -2.86260       -4.20210       -0.70100
H         -2.90060        0.84670       -0.24580
