22
gdb 5818	2.63262	1.64394	1.33227	0.5563	83.39	-0.2582	0.0544	0.3126	1071.518	0.196615	-313.051001	-313.040779	-313.039835	-313.084948	38.833
C         -0.10440        1.55600       -0.08600
C          0.05490        0.02140       -0.01090
C          0.68760       -0.46100       -1.24020
C          1.20780       -0.82580       -2.26180
C          0.78870       -0.50740        1.27490
C          0.04370       -0.02000        2.53140
C          0.76070       -2.04730        1.25590
C          2.24930       -0.02600        1.32130
H          0.86660        2.05750       -0.10820
H         -0.63790        1.82890       -1.00010
H         -0.67440        1.93670        0.76450
H         -0.95740       -0.40730        0.02300
H          1.66000       -1.15800       -3.16320
H         -1.01770       -0.29140        2.49740
H          0.47420       -0.48220        3.42590
H          0.11290        1.06370        2.65980
H          1.27090       -2.44330        0.37400
H          1.25460       -2.45090        2.14610
H         -0.26880       -2.42350        1.24660
H          2.31710        1.06390        1.39420
H          2.75820       -0.44410        2.19630
H          2.79710       -0.34080        0.42840
