15
gdb 3578	4.8282	3.00542	2.53238	2.1785	60.33	-0.2002	0.0628	0.263	597.7748	0.125193	-304.574737	-304.568657	-304.567712	-304.604302	23.74
C         -0.21350        1.57450       -0.08270
N          0.16430        0.16670        0.04230
C          1.38150       -0.49980       -0.30060
C          2.69960        0.16780        0.24710
N          2.34650        1.44130        0.92140
C          2.16050        0.14490        1.61840
C          0.82990       -0.52320        1.10270
H          0.45670        2.11060       -0.75720
H         -1.23430        1.62320       -0.48300
H         -0.18750        2.08330        0.88270
H          1.38630       -1.27180       -1.06370
H          3.70160       -0.03180       -0.10880
H          3.21680        1.84340        1.27020
H          2.65430       -0.07620        2.55540
H          0.32270       -1.31700        1.64210
