13
gdb 1856	6.02435	2.09108	1.65358	4.044	56.42	-0.2421	-0.0505	0.1915	713.2796	0.102002	-344.481802	-344.475458	-344.474514	-344.512213	23.265
O          0.00640        1.44340        0.09980
C          0.01100        0.02510       -0.01510
C         -1.43300       -0.49030       -0.09040
C         -1.47560       -1.41870       -1.31280
O         -2.39280       -2.13490       -1.63490
C         -0.17380       -1.26250       -2.01290
C          0.63410       -0.46330       -1.31080
H          0.91550        1.74250        0.20630
H          0.54260       -0.42060        0.84050
H         -1.77560       -1.01030        0.80640
H         -2.10390        0.35720       -0.26200
H          0.03920       -1.75200       -2.95500
H          1.64200       -0.17450       -1.59390
