15
gdb 19806	3.98938	2.22331	1.86222	3.6525	64.01	-0.2399	-0.0067	0.2332	738.7097	0.120176	-362.620539	-362.614495	-362.613551	-362.65055	24.141
O         -0.01290        0.00540        0.27280
C         -0.06590        1.18350        0.08650
C         -1.19210        2.24370       -0.02980
C         -0.04040        3.27710        0.03990
C          0.57710        3.77040        1.36380
C          0.68980        2.67510        2.39670
C          1.62820        2.66410        1.22780
N          0.96860        2.17030       -0.01430
H         -1.75360        2.23320       -0.96700
H         -1.89210        2.21690        0.80820
H          0.02240        4.00280       -0.77320
H          0.72010        4.81220        1.61900
H          1.14100        3.00010        3.32900
H         -0.06660        1.90630        2.52110
H          2.70720        2.68770        1.30840
