13
gdb 4087	3.70872	1.97223	1.29782	3.3316	65.73	-0.2331	-0.0718	0.1613	867.6964	0.095628	-398.583386	-398.576546	-398.575602	-398.614536	25.411
O         -0.05210        1.32090        0.00860
N          0.01270       -0.05680        0.00410
C         -1.12840       -0.63100        0.01130
C         -1.22800       -2.14070        0.00770
C         -2.71730       -2.37280        0.01860
C         -3.42520       -1.23620        0.02740
C         -2.53000       -0.05280        0.02390
O         -2.85280        1.11300        0.02980
H          0.87960        1.57020        0.00200
H         -0.75260       -2.58540       -0.87530
H         -0.73900       -2.59050        0.88080
H         -3.13700       -3.37260        0.01890
H         -4.50290       -1.13740        0.03600
