18
gdb 9826	3.51386	1.50026	1.1814	1.6392	68.27	-0.245	-0.0213	0.2237	1065.1469	0.150606	-384.947563	-384.93844	-384.937496	-384.981717	32.369
C          0.33220        1.56240        0.07890
C          0.65910        0.07300        0.01120
C          0.26390       -0.56090       -1.31170
O         -0.35900        0.03510       -2.16290
C          0.64610       -2.01100       -1.54120
C         -0.26300       -2.79180       -2.45940
C          2.07420       -2.37920       -1.41340
O          1.14750       -2.70380       -0.38630
H          0.87970        2.12070       -0.68550
H         -0.73240        1.73580       -0.09530
H          0.59610        1.96960        1.05880
H          1.72260       -0.11550        0.20110
H          0.14210       -0.48990        0.79990
H         -0.34540       -2.28290       -3.42220
H          0.12280       -3.80260       -2.60990
H         -1.26860       -2.86280       -2.03370
H          2.44300       -3.21840       -2.00180
H          2.82010       -1.62770       -1.15900
