21
gdb 20084	3.27903	1.45892	1.22017	1.3775	79.6	-0.2087	0.0813	0.29	1100.2755	0.187802	-329.080534	-329.071477	-329.070533	-329.114382	33.368
C         -0.91660        1.43890        1.46560
C         -0.69750        0.09620        0.80050
C         -1.39010       -0.32130       -0.46110
C         -2.36490        0.54870       -1.19230
C         -2.84070        0.12850       -2.56550
C         -3.77760        0.04900       -1.38940
N          0.05750       -0.08260       -0.44430
C          0.62090        1.06210       -1.14330
H         -0.01530        1.75340        2.00360
H         -1.18010        2.23530        0.76750
H         -1.72660        1.36170        2.19890
H         -0.48650       -0.69270        1.52400
H         -1.63450       -1.38070       -0.56490
H         -2.26870        1.61720       -1.03960
H         -3.00780        0.89950       -3.30950
H         -2.45260       -0.80160       -2.96770
H         -4.02150       -0.93450       -1.00090
H         -4.58860        0.76540       -1.32240
H          0.01810        1.98110       -1.13020
H          1.59750        1.29580       -0.70640
H          0.78090        0.78700       -2.19080
