18
gdb 9702	3.57893	1.56373	1.52873	2.6786	72.67	-0.2409	-0.0173	0.2235	930.2889	0.152954	-347.831192	-347.823091	-347.822146	-347.865155	29.743
C          0.05880        1.53370        0.01590
C          0.01200        0.00600        0.00490
C          0.79470       -0.62790       -1.20010
C          1.64190       -1.70730       -0.57970
C          1.56760       -1.71460        0.74850
C          0.65590       -0.64160        1.28250
C         -1.42190       -0.48860       -0.07820
O         -2.40230        0.20800       -0.12980
H          1.09460        1.88210        0.07530
H         -0.39510        1.94710       -0.88910
H         -0.49270        1.93750        0.86950
H          0.11790       -1.02280       -1.97030
H          1.40640        0.13150       -1.70430
H          2.25310       -2.37550       -1.17650
H          2.10890       -2.38980        1.40230
H          1.20710        0.11180        1.86010
H         -0.10230       -1.04460        1.96800
H         -1.50850       -1.60160       -0.08860
