9
gdb 722	6.37607	6.29157	3.16677	4.753	45.02	-0.2556	-0.0696	0.186	391.8571	0.063368	-280.24835	-280.244113	-280.243169	-280.275768	14.974
C         -0.05010        1.40360        0.01070
C          1.18340        2.03100        0.00200
N          2.33090        1.34390       -0.01320
N          2.30340        0.02120       -0.02020
N          1.16150       -0.64690       -0.01260
C          0.00260        0.02070        0.00250
H         -0.98440        1.95240        0.02300
H          1.28790        3.11200        0.00700
H         -0.89070       -0.59700        0.00790
