10
gdb 21733	5.63395	2.32031	1.64346	2.0649	53.32	-0.2603	-0.052	0.2083	675.3669	0.063339	-413.438627	-413.433766	-413.432822	-413.467572	18.712
O         -0.01010        1.26090        0.00900
C          1.25230        1.75140       -0.00050
C          2.11560        0.70170       -0.01440
N          3.43650        0.24660       -0.02950
C          3.29670       -1.03270       -0.03500
O          2.00320       -1.54440       -0.02540
C          1.25430       -0.41370       -0.01210
N         -0.02110       -0.15270        0.00150
H          1.33400        2.82570        0.00450
H          4.07610       -1.77990       -0.04650
