14
gdb 3618	4.72734	3.70968	2.95494	0.5751	55.2	-0.2337	0.0839	0.3177	525.6907	0.116348	-324.521162	-324.5163	-324.515356	-324.549478	19.753
C         -0.01590        1.48660       -0.00870
C          1.53120        1.49920        0.03930
O          2.00560        1.63150        1.36930
C          1.40830        0.55840        2.10760
C          0.94710       -0.44540        1.06050
C          1.44150       -0.01670       -0.25700
N         -0.04250       -0.01920        0.02290
H         -0.54480        1.99190        0.80620
H         -0.42310        1.81380       -0.96850
H          2.09000        2.17500       -0.60620
H          2.16120        0.12240        2.77380
H          0.57950        0.92940        2.72600
H          0.86250       -1.49390        1.32110
H          1.91690       -0.61950       -1.02030
