12
gdb 308	9.32445	2.68104	2.36185	4.16	46.42	-0.2737	0.0124	0.2861	549.3072	0.096346	-306.403144	-306.397481	-306.396537	-306.432231	20.176
C         -0.35830        1.52850        0.02740
C          0.06990        0.07940       -0.01580
C          0.86370       -0.41790       -1.23990
C          1.98800       -0.62300       -0.22370
O          3.10890       -1.01670       -0.21310
O          1.24760       -0.17000        0.83780
H          0.46030        2.18620       -0.28080
H         -1.20710        1.69000       -0.64520
H         -0.66460        1.80990        1.03890
H         -0.73610       -0.59050        0.29570
H          0.51350       -1.33580       -1.71450
H          1.08080        0.33140       -2.00370
