12
gdb 5012	3.50731	2.39225	1.4222	3.1518	60.7	-0.2232	-0.0515	0.1717	787.3568	0.085441	-418.540676	-418.534616	-418.533672	-418.570786	23.357
O          0.00080        1.36060        0.00780
C         -0.05980        0.01840        0.00120
C         -1.21210       -0.69740        0.00440
C         -1.13140       -2.12650       -0.00370
C          0.07460       -2.72250       -0.01440
O          1.23440       -2.01380       -0.01760
C          1.24070       -0.64780       -0.00990
O          2.28820       -0.03670       -0.01430
H          0.95090        1.57400        0.00340
H         -2.17020       -0.19110        0.01280
H         -2.02640       -2.73450       -0.00160
H          0.26060       -3.78730       -0.02140
