12
gdb 14607	7.02195	0.70275	0.65582	1.9353	63.35	-0.283	-0.0796	0.2034	1555.4578	0.080675	-418.461972	-418.453429	-418.452485	-418.497422	26.82
O          0.37960        0.09160       -0.19180
C          0.43180        1.27760       -0.28410
O          0.67330        2.07670        0.78230
C          0.76430        3.48460        0.53050
C          2.12530        3.91630        0.25050
C          3.24920        4.28800        0.01490
C          4.60470        4.70090       -0.26230
O          4.93350        5.84410       -0.47360
H          0.28060        1.84580       -1.22250
H          0.10310        3.77150       -0.29840
H          0.38960        3.97640        1.43290
H          5.33730        3.86960       -0.26670
