20
gdb 6845	3.22098	1.89008	1.63867	1.0937	75.75	-0.2402	0.0266	0.2667	908.8843	0.176874	-349.021378	-349.01332	-349.012376	-349.05298	31.816
C          0.03320        1.50540        0.06180
C         -0.05310       -0.01770       -0.02260
C         -1.52270       -0.47010       -0.04330
C          0.70920       -0.54340       -1.25840
C          1.07210       -1.99730       -1.11450
C          1.05150       -2.61030        0.06560
C          0.68000       -1.88290        1.32470
O          0.60540       -0.47970        1.16820
H          1.07490        1.81660        0.17920
H         -0.37030        1.96650       -0.84510
H         -0.53280        1.87520        0.92180
H         -2.06160        0.02270       -0.85850
H         -1.61340       -1.54990       -0.18990
H         -2.00910       -0.20370        0.89970
H          0.09960       -0.39250       -2.15840
H          1.61930        0.05390       -1.40750
H          1.35740       -2.53800       -2.01320
H          1.29390       -3.66530        0.16330
H         -0.26710       -2.28900        1.72490
H          1.43710       -2.05420        2.10060
