18
gdb 10703	2.40286	2.09613	1.33827	2.1609	68.26	-0.2427	-0.0114	0.2312	963.5241	0.152159	-384.947342	-384.938645	-384.9377	-384.980491	32.164
C         -1.84640       -0.32440        0.37770
C         -0.40270       -0.73460        0.17140
O          0.34840       -0.90750        1.10940
C          0.07860       -0.94600       -1.24470
C         -0.82040       -0.56790       -2.40360
O         -1.09980        0.82530       -2.46540
C          1.58310       -0.78280       -1.44380
C          0.99680       -2.15210       -1.42110
H         -2.08060        0.55700       -0.22560
H         -2.51600       -1.12700        0.04470
H         -2.01830       -0.13200        1.43690
H         -0.36120       -0.91860       -3.34070
H         -1.79690       -1.05640       -2.32440
H         -0.25500        1.28860       -2.47180
H          1.91550       -0.37890       -2.39500
H          2.14200       -0.46410       -0.57240
H          1.16320       -2.75190       -0.53430
H          0.91470       -2.70340       -2.35160
