18
gdb 11785	4.18513	1.79341	1.64803	1.0292	71.92	-0.2273	0.0133	0.2406	862.4095	0.154402	-347.758814	-347.75176	-347.750816	-347.789857	28.048
C          0.06450        1.35760        0.11760
O         -0.12350       -0.02900       -0.07950
C          0.58620       -0.55160       -1.14920
C          2.15920       -0.52840       -1.26090
C          1.84290       -1.67660       -2.27990
C          0.70030       -2.09850       -1.28920
C          1.02860       -0.90840       -3.33220
C          0.20190       -0.16340       -2.59660
H          1.11400        1.59670        0.34260
H         -0.24160        1.94490       -0.76010
H         -0.55510        1.64730        0.96920
H          2.63500        0.37190       -1.65540
H          2.65510       -0.87870       -0.35030
H          2.60670       -2.37660       -2.61120
H          1.06690       -2.57980       -0.37760
H         -0.15870       -2.63000       -1.70330
H          1.12360       -0.99360       -4.40560
H         -0.57810        0.52600       -2.88610
