11
gdb 23721	6.0671	1.55896	1.24027	3.9423	54.93	-0.2523	-0.0556	0.1967	851.1319	0.073255	-438.737735	-438.731754	-438.73081	-438.767897	22.438
O          0.08570        1.35970        0.13260
C          0.06590        0.00620        0.03800
C          0.08580       -0.70590       -1.15910
N          0.06470       -2.03910       -1.19480
C          0.02320       -2.63650       -0.01960
F          0.00370       -3.95740       -0.04580
N          0.00090       -2.08600        1.18200
C          0.02230       -0.75540        1.20740
H          0.11540        1.74710       -0.74920
H          0.11990       -0.18940       -2.11810
H          0.00480       -0.26700        2.17790
