15
gdb 23646	3.66283	1.76422	1.19956	1.4813	70.78	-0.238	-0.0067	0.2314	949.9891	0.119424	-370.705773	-370.698796	-370.697852	-370.737591	26.206
C         -0.01190        1.52190        0.01380
C         -0.00640        0.01290       -0.00070
C         -0.03470       -0.69840       -1.20310
C         -0.00820       -2.09140       -1.20910
C          0.04520       -2.80490       -0.01580
C          0.07050       -2.08810        1.17270
F          0.11830       -2.75520        2.33290
C          0.04480       -0.70260        1.19950
H          0.98560        1.91920        0.23700
H         -0.31900        1.92810       -0.95340
H         -0.69130        1.91240        0.77800
H         -0.07900       -0.15650       -2.14230
H         -0.03250       -2.62780       -2.15190
H          0.06380       -3.88770        0.00910
H          0.06360       -0.19420        2.15760
