11
gdb 383	7.60375	2.27643	1.85366	2.1065	43.5	-0.2878	-0.0038	0.2839	617.6379	0.084113	-322.425235	-322.418738	-322.417794	-322.455292	22.348
O          0.14060        1.38690        0.00250
C          0.11070       -0.01610        0.03120
C         -1.35010       -0.50590        0.02320
O         -2.04310        0.02940       -1.09760
C         -1.42570       -1.97450        0.06550
N         -1.45020       -3.12980        0.06590
H         -0.46190        1.65910       -0.70150
H          0.63960       -0.46700       -0.82570
H          0.61340       -0.34540        0.94550
H         -1.85850       -0.09610        0.90200
H         -1.75870       -0.44690       -1.88740
