20
gdb 7157	4.45901	0.82292	0.72337	1.1243	81.4	-0.2431	0.0626	0.3057	1613.3423	0.173882	-348.976815	-348.966191	-348.965246	-349.014316	35.579
C          0.06710        1.40240       -0.01840
O          0.02760       -0.00360        0.00850
C          0.71070       -0.55230        1.11370
C          0.62650       -2.08470        1.02280
C          1.29890       -2.61140       -0.25980
C          1.19940       -2.68710        2.22560
C          1.69240       -3.16980        3.21280
C          2.27850       -3.76350        4.40660
H          1.09930        1.78150       -0.08510
H         -0.48680        1.72940       -0.90190
H         -0.40050        1.84180        0.87710
H          1.76770       -0.23620        1.11690
H          0.26110       -0.20770        2.05860
H         -0.44240       -2.33480        0.97610
H          2.37200       -2.39520       -0.24580
H          1.17310       -3.69370       -0.34530
H          0.85670       -2.12990       -1.13450
H          3.05440       -4.49330        4.14950
H          2.74070       -3.00210        5.04480
H          1.52270       -4.28240        5.00690
