13
gdb 5150	6.31314	1.33345	1.10839	4.3145	62.85	-0.238	0.0169	0.255	980.9294	0.098	-357.698849	-357.692033	-357.691089	-357.730745	24.398
N         -0.69770       -0.27270       -1.35620
C         -0.29370        0.35560       -0.47480
C          0.23500        1.15670        0.62740
C          1.51200        1.86660        0.27090
C          2.21160        1.85620       -0.90680
N          3.29730        2.67360       -0.68380
C          3.20530        3.13150        0.59530
N          2.13860        2.66380        1.20110
H         -0.52810        1.88270        0.93340
H          0.39540        0.50290        1.49330
H          2.04160        1.36090       -1.84760
H          4.02260        2.88870       -1.34730
H          3.93830        3.79690        1.02590
