11
gdb 21563	7.65776	1.30883	1.11868	6.7373	60.71	-0.245	-0.0476	0.1974	954.5444	0.073293	-393.58625	-393.579575	-393.578631	-393.617036	24.414
N          0.03800        1.37510        0.17190
C         -0.08120        0.01930        0.06510
C         -1.14950       -0.83710        0.04550
C         -0.52370       -2.10960       -0.00530
N          0.79480       -2.04360       -0.01790
O          1.06760       -0.67430        0.02620
C         -1.17070       -3.38020       -0.04340
N         -1.73380       -4.38940       -0.07430
H          0.92480        1.75430       -0.12630
H         -0.75930        1.91220       -0.13070
H         -2.20040       -0.61090        0.07030
