14
gdb 13053	4.30718	1.28826	1.03848	3.6406	58.01	-0.261	-0.0356	0.2255	1054.9655	0.106074	-419.705991	-419.698347	-419.697403	-419.739191	26.003
O         -0.68380        0.60660        0.65050
C          0.08710        0.89400       -0.22760
C          1.29400        1.79790       -0.02680
C          1.35660        2.91630       -1.07160
C          2.65110        3.74380       -1.20420
O          2.82040        3.27810       -2.58240
C          1.69750        2.49570       -2.50890
O          1.25880        1.76500       -3.33770
H         -0.03440        0.50690       -1.26130
H          1.25630        2.20500        0.98750
H          2.19430        1.17240       -0.11100
H          0.45370        3.53280       -1.03670
H          2.54360        4.82910       -1.17200
H          3.48930        3.41920       -0.58360
