17
gdb 20269	4.4492	2.63176	2.39012	1.65	70.09	-0.2224	0.0923	0.3147	664.7833	0.146446	-326.660327	-326.655309	-326.654365	-326.689007	22.267
C         -0.02480        1.57170       -0.03810
C          1.51490        1.39740       -0.02240
C          1.32870        0.05300        0.81040
C         -0.02160        0.04540        0.04370
N          0.78900       -0.48790       -1.14140
C          1.80480        0.66170       -1.33620
C          2.95140       -0.32760       -1.05700
C          1.88360       -0.98890       -0.18570
H         -0.40320        2.01560        0.88730
H         -0.48600        2.05810       -0.90390
H          2.18900        2.19640        0.28510
H          1.46130        0.05730        1.89160
H         -0.89470       -0.56170        0.28010
H          1.73950        1.22930       -2.26540
H          3.19200       -0.93750       -1.93070
H          3.86290        0.05410       -0.58950
H          1.88990       -2.04540        0.08580
