18
gdb 16173	4.23031	1.62833	1.40642	1.0692	66.97	-0.2268	0.0881	0.3149	941.9112	0.153711	-384.920905	-384.913257	-384.912313	-384.952822	28.883
C         -0.24780        1.54270       -0.09890
C         -0.01100        0.03590        0.06020
C          0.79410       -0.55250       -1.06490
C          0.19810       -0.97260       -2.40200
C          0.87290       -1.98180       -1.48730
O          2.22900       -2.27860       -1.71230
C          2.89650       -1.03190       -1.79760
O          2.12740       -0.07590       -1.09540
H          0.70380        2.07930       -0.14310
H         -0.79830        1.75870       -1.02040
H         -0.82530        1.93860        0.74160
H          0.51330       -0.16340        1.00250
H         -0.97010       -0.49240        0.11060
H         -0.88500       -1.01940       -2.45650
H          0.68190       -0.68370       -3.32830
H          0.33690       -2.80570       -1.03280
H          3.88520       -1.11680       -1.33480
H          3.00550       -0.73280       -2.85340
