16
gdb 20713	5.61394	1.52796	1.21923	3.7167	74.79	-0.2222	-0.0407	0.1815	992.4055	0.130589	-342.821975	-342.814246	-342.813302	-342.854455	27.766
C         -0.03460        1.49800       -0.01740
C         -0.00390       -0.00560        0.02430
N         -0.10640       -0.63600       -1.14720
N         -0.08830       -1.96690       -1.20350
C          0.03270       -2.69090       -0.08920
C          0.04250       -4.18600       -0.25770
C          0.14440       -2.08550        1.17180
C          0.12570       -0.71200        1.22990
H          0.88350        1.92460        0.40160
H         -0.13900        1.83200       -1.05060
H         -0.87180        1.89320        0.56870
H          0.97230       -4.62130        0.12510
H         -0.78310       -4.65170        0.29200
H         -0.05380       -4.43420       -1.31550
H          0.24210       -2.69160        2.06700
H          0.20800       -0.18120        2.17310
