13
gdb 12462	3.83535	2.08769	1.46029	3.5618	55.99	-0.274	-0.016	0.258	802.9535	0.096612	-435.769697	-435.7631	-435.762156	-435.801009	23.717
O         -0.01750        0.11030       -0.70570
C         -0.06750        1.03480        0.04020
O         -1.13150        1.83710        0.12260
C         -1.29040        2.75440        1.21650
C         -0.35830        3.94730        1.09450
N          1.04460        3.66330        1.31410
C          1.53780        2.51480        1.22880
O          0.99000        1.28370        0.89670
H         -2.33280        3.07300        1.15240
H         -1.14200        2.22950        2.16620
H         -0.47940        4.40470        0.10450
H         -0.66080        4.70790        1.82450
H          2.58730        2.34530        1.45700
