18
gdb 15578	2.81513	1.96336	1.35383	4.7669	71.29	-0.2365	0.0336	0.2701	949.1863	0.155592	-344.004242	-343.996208	-343.995264	-344.037063	29.657
C         -0.20630        1.55360       -0.08790
C          0.05880        0.05200       -0.04330
C          0.92590       -0.50790       -1.18210
C          1.31030       -1.89230       -0.65840
N          1.56400       -1.65060        0.76810
C          0.79980       -0.48210        1.22490
C          1.71020        0.51950        1.82100
N          2.41260        1.30470        2.29680
H          0.72670        2.12390       -0.06210
H         -0.74160        1.81530       -1.00590
H         -0.81900        1.87950        0.75880
H         -0.90240       -0.47720       -0.06610
H          0.39400       -0.54670       -2.13560
H          1.82040        0.11170       -1.31440
H          0.48550       -2.60240       -0.83360
H          2.20470       -2.29810       -1.14270
H          1.42740       -2.46180        1.35320
H          0.06870       -0.73620        2.00300
