11
gdb 4638	5.44416	1.49568	1.17333	6.3659	58.37	-0.2463	-0.0677	0.1786	909.6491	0.072679	-434.599108	-434.592669	-434.591725	-434.630026	23.06
O         -0.03500       -0.06170       -0.00040
C         -0.01020        1.14670        0.00900
C          1.18610        1.96730        0.00210
C          1.30120        3.31570        0.01190
N          2.64400        3.59770       -0.00110
C          3.38270        2.41500       -0.01920
O          4.56840        2.26850       -0.03370
O          2.44690        1.40530       -0.01660
H         -0.93800        1.76110        0.02460
H          0.53700        4.07510        0.02680
H          3.08300        4.50250        0.00120
