19
gdb 7164	6.64235	0.79722	0.74749	4.9948	72.89	-0.2852	0.0298	0.315	1516.7579	0.163667	-365.085216	-365.075524	-365.07458	-365.120185	33.947
C          0.01730        1.58590       -0.03240
C          0.01110        0.05570       -0.00770
C          0.69520       -0.52520        1.23440
C          0.75230       -2.05730        1.22980
O          1.42930       -2.57150        0.09680
C          1.37520       -2.58990        2.54240
C          1.41820       -4.04870        2.60130
N          1.44460       -5.20220        2.65880
H          1.03990        1.97970       -0.02610
H         -0.47970        1.96880       -0.92870
H         -0.50120        2.00210        0.83870
H         -1.02300       -0.31020       -0.04940
H          0.50750       -0.33900       -0.90040
H          1.72200       -0.13410        1.31070
H          0.17420       -0.18740        2.14010
H         -0.26460       -2.45810        1.14720
H          2.32370       -2.21100        0.08740
H          2.39670       -2.20220        2.64840
H          0.80740       -2.21950        3.40350
