18
gdb 8015	3.25513	1.93064	1.50843	3.0194	71.74	-0.2352	-0.0176	0.2176	897.6367	0.153193	-347.805109	-347.797511	-347.796567	-347.837108	29.184
C         -0.28570        1.56290        0.06980
C          0.02860        0.08420        0.01890
C         -1.14880       -0.92370        0.15300
C         -0.37470       -1.71140        1.24900
C          0.80440       -0.68910        1.16970
C          1.85050       -1.09770        0.13490
O          2.87800       -1.71060        0.19310
C          1.11020       -0.37610       -1.00770
H          0.62740        2.16560        0.13490
H         -0.82790        1.87980       -0.82940
H         -0.91040        1.80830        0.93560
H         -2.06430       -0.46000        0.53030
H         -1.40090       -1.47730       -0.75590
H         -0.86800       -1.70550        2.22260
H         -0.10900       -2.74430        1.01150
H          1.15580       -0.24870        2.10430
H          0.78370       -1.00040       -1.84500
H          1.71100        0.44800       -1.40920
