17
gdb 14035	4.80045	1.65863	1.54685	1.918	67.71	-0.2435	0.0261	0.2696	870.7674	0.144082	-363.870926	-363.864109	-363.863165	-363.90235	25.989
C          0.04220        1.33600       -0.48350
C          1.38150        1.68110        0.22610
C          1.42850        0.22670        0.75090
C         -0.08080        0.09160        0.44010
C          2.40080       -0.76200        0.05140
N          3.20520       -1.35670        1.13090
C          2.78060       -0.82260        2.19770
O          1.78160        0.08990        2.14830
H         -0.75580        2.07770       -0.42680
H          0.18800        1.06080       -1.53120
H          2.22320        2.01710       -0.38520
H          1.23750        2.38120        1.05300
H         -0.67510        0.30230        1.33280
H         -0.41600       -0.85160        0.00090
H          1.86910       -1.55140       -0.49180
H          3.05870       -0.25830       -0.66580
H          3.15140       -1.02930        3.19570
