20
gdb 6737	5.49242	0.70891	0.66843	1.4705	80.7	-0.24	0.0571	0.2971	1738.7783	0.174456	-348.988615	-348.978301	-348.977356	-349.02617	35.926
C         -0.10290        1.19730       -0.19600
C          1.23330        0.47860        0.06600
C          1.28360       -0.18210        1.36680
C          1.30190       -0.70700        2.45160
C          1.32060       -1.38120        3.74390
C          1.31860       -2.92610        3.64530
C          2.56470       -3.47600        2.95660
O          1.13600       -3.49220        4.93710
H         -0.28480        1.96610        0.55980
H         -0.09340        1.67580       -1.18000
H         -0.93660        0.49050       -0.16410
H          1.41110       -0.26070       -0.72580
H          2.05720        1.20020       -0.00890
H          2.20530       -1.06880        4.31860
H          0.44740       -1.08840        4.33870
H          0.42920       -3.22640        3.08040
H          2.51740       -4.56670        2.90030
H          2.66340       -3.07080        1.94610
H          3.46790       -3.19950        3.51690
H          1.95400       -3.36560        5.43080
