19
gdb 15116	7.94061	0.70049	0.673	4.1809	76.64	-0.2862	0.0377	0.3239	1637.4464	0.165468	-327.936514	-327.927732	-327.926788	-327.970875	31.267
N         -0.01380       -1.12980       -0.31300
C         -0.01880        0.00970       -0.12070
C         -0.00070        1.45100        0.11920
C          1.41250        2.05670        0.00570
C          1.41250        3.56840        0.26270
C          2.79370        4.17990        0.16270
C          3.34990        4.59300       -1.17800
C          2.96280        5.64140       -0.16320
H         -0.67760        1.93000       -0.59830
H         -0.41670        1.64190        1.11560
H          2.07390        1.55520        0.72120
H          1.81640        1.84760       -0.99050
H          0.74590        4.06170       -0.45800
H          0.98950        3.76950        1.25700
H          3.51430        3.76650        0.86460
H          4.40330        4.43020       -1.37640
H          2.71240        4.47400       -2.04850
H          2.06720        6.22390       -0.35430
H          3.75200        6.19350        0.33450
