18
gdb 8906	3.64901	1.16324	1.05681	3.9002	68.26	-0.2671	0.0268	0.2938	1154.2283	0.152958	-381.123967	-381.114306	-381.113362	-381.158377	34.028
C         -0.10500        1.58300       -0.04480
C          0.04380        0.05730       -0.02860
C          0.74320       -0.45690       -1.29030
O         -0.08570       -0.13290       -2.39670
C          0.77540       -0.47030        1.22990
N          2.15210        0.02880        1.31000
C         -0.01420       -0.18070        2.44860
N         -0.59410        0.06500        3.41850
H          0.87090        2.08060       -0.07930
H         -0.65550        1.88400       -0.93780
H         -0.64640        1.94120        0.83560
H         -0.95950       -0.38610       -0.01670
H          1.73640        0.00350       -1.37660
H          0.89040       -1.54700       -1.21360
H          0.40360       -0.31570       -3.20350
H          0.83480       -1.56240        1.14720
H          2.14850        1.02300        1.51750
H          2.63840       -0.42070        2.07970
