13
gdb 21594	3.40701	1.9385	1.23723	6.0143	64.1	-0.2175	-0.0423	0.1752	896.124	0.097225	-394.80017	-394.793025	-394.792081	-394.831579	25.982
N          0.00700        1.42240        0.15360
C          0.00220        0.03190        0.03820
C         -1.09270       -0.81100        0.01900
N         -0.58480       -2.07850       -0.02370
N          0.73560       -2.13460       -0.03800
C          1.12840       -0.84760        0.00370
C          2.54210       -0.47280        0.01730
O          3.48150       -1.23280       -0.02630
H          0.79520        1.86960       -0.29250
H         -0.85290        1.85790       -0.14990
H         -2.15290       -0.61770        0.03530
H         -1.10740       -2.93910       -0.04790
H          2.70920        0.62870        0.07870
