16
gdb 6264	4.6808	1.11121	0.93736	3.4616	68.88	-0.2599	-0.0696	0.1903	1207.6035	0.127224	-383.723559	-383.714625	-383.71368	-383.757457	32.01
C         -0.08990        1.59880        0.01540
C          0.00390        0.08020       -0.06090
O          0.87610       -0.34400        0.97080
C         -1.37850       -0.57980        0.07860
C         -1.33130       -2.09420       -0.00190
O         -0.29790       -2.73480        0.05820
C         -2.61340       -2.75830       -0.14980
C         -3.68970       -3.28340       -0.27160
H          0.90750        2.03540       -0.07920
H         -0.72370        1.99670       -0.78280
H         -0.50530        1.90720        0.98030
H          0.41250       -0.20260       -1.04540
H          0.95840       -1.30140        0.86840
H         -1.81850       -0.31880        1.05190
H         -2.07950       -0.21200       -0.68090
H         -4.63150       -3.76500       -0.37940
