15
gdb 10285	2.71405	1.68638	1.20151	3.0603	62.46	-0.2444	-0.007	0.2374	1008.0644	0.118245	-396.010625	-396.001642	-396.000698	-396.044753	31.055
C         -0.03700        1.48580       -0.20820
N         -0.16830        0.17930        0.42040
C         -1.42580       -0.49760        0.23040
C         -1.92650       -0.52380       -1.17040
N         -2.29750       -0.52060       -2.26590
C         -1.26690       -1.97090        0.70450
N         -2.43260       -2.59140        1.01730
O         -0.17530       -2.48820        0.78140
H          0.96310        1.87330        0.00100
H         -0.19040        1.48300       -1.29890
H         -0.76120        2.18190        0.23070
H          0.58010       -0.45970        0.17340
H         -2.20530       -0.00940        0.83240
H         -3.32370       -2.17780        0.80010
H         -2.40260       -3.58250        1.19770
