15
gdb 5145	6.02522	1.29691	1.07417	1.8735	71.97	-0.2042	0.0461	0.2503	1045.6809	0.119472	-325.527559	-325.520091	-325.519147	-325.559861	28.032
C         -0.31300       -0.93970        0.92960
C         -0.09010        0.01250        0.23070
C          0.18340        1.16940       -0.61660
C          1.49310        1.85860       -0.31890
C          2.41550        1.50970        0.63980
N          3.45680        2.40090        0.56820
C          3.21680        3.31740       -0.42260
C          2.00500        3.00770       -0.99240
H         -0.51940       -1.78220        1.54160
H          0.16150        0.84970       -1.66810
H         -0.64520        1.88460       -0.51530
H          2.40590        0.70500        1.35590
H          4.27160        2.38250        1.15510
H          3.92140        4.10490       -0.63680
H          1.53210        3.54190       -1.80300
