20
gdb 6907	4.67267	1.05582	0.98581	0.8686	81.7	-0.2528	0.0579	0.3106	1261.9315	0.174418	-311.831488	-311.822121	-311.821176	-311.865297	35.053
C          0.04870        1.53570       -0.14350
C          0.00130        0.02590        0.00560
C         -1.21320       -0.60710       -0.64980
C          1.30090       -0.75010       -0.03120
C          0.52430       -0.64500        1.25990
C          1.07870        0.12380        2.45340
C          1.93690       -0.70230        3.29850
C          2.63300       -1.40060        3.98600
H          0.95340        1.97360        0.28590
H          0.02630        1.81390       -1.20370
H         -0.81500        2.01070        0.33730
H         -1.23460       -0.39420       -1.72530
H         -1.21480       -1.69450       -0.52580
H         -2.14390       -0.22010       -0.21760
H          1.32770       -1.70480       -0.54620
H          2.22470       -0.18380       -0.10400
H         -0.01240       -1.54210        1.55730
H          1.64690        0.99730        2.11430
H          0.25140        0.51870        3.05890
H          3.25300       -2.00950        4.59570
