24
gdb 9420	5.65526	0.68269	0.64085	1.3384	82.6	-0.2624	0.0787	0.341	1827.3067	0.221402	-351.415262	-351.40434	-351.403396	-351.451798	38.567
C         -0.02000        1.56290       -0.11230
C          0.03220        0.03450       -0.03990
C          0.68770       -0.48700        1.24410
C          0.73850       -2.01780        1.31480
C          1.46720       -2.58420        2.54580
C          0.76840       -2.24120        3.86820
C          1.63480       -4.09820        2.40180
O          2.43920       -4.57180        3.47370
H          0.98580        1.99570       -0.06920
H         -0.48950        1.90470       -1.04010
H         -0.59310        1.97970        0.72360
H         -0.98550       -0.37120       -0.11690
H          0.57860       -0.35560       -0.90910
H          1.70870       -0.08650        1.31750
H          0.14290       -0.08840        2.10900
H         -0.28680       -2.41510        1.28830
H          1.23140       -2.39260        0.40670
H          2.48140       -2.16030        2.57150
H         -0.27370       -2.58550        3.85720
H          1.27640       -2.73120        4.70170
H          0.76160       -1.16430        4.05750
H          0.64210       -4.57980        2.40860
H          2.10310       -4.32590        1.43060
H          2.47630       -5.53080        3.42150
