16
gdb 17666	3.34782	1.79851	1.50344	1.9566	59.86	-0.2548	0.0609	0.3158	874.6311	0.128949	-420.817806	-420.809974	-420.809029	-420.850726	28.191
O         -0.09910        1.51140        0.28720
C         -0.00550        0.12430        0.05320
C          0.93250       -0.33360       -1.09300
O          1.82010       -0.98860       -0.16540
C          0.98060       -0.66430        0.95730
C         -1.42760       -0.38000        0.04130
C         -2.19830       -0.55080       -1.19270
O         -1.64190       -1.67750       -0.50480
H          0.79050        1.86400        0.39680
H          0.50070       -1.04140       -1.80840
H          1.41740        0.49170       -1.63030
H          1.49680       -0.05190        1.70950
H          0.56900       -1.55940        1.43900
H         -1.97130       -0.17370        0.96440
H         -3.28350       -0.47610       -1.16280
H         -1.74150       -0.31830       -2.15310
