16
gdb 14197	3.81499	2.27181	2.11506	0.5219	63.01	-0.24	0.0717	0.3117	724.9866	0.131244	-383.692346	-383.68626	-383.685315	-383.722159	24.989
C          0.05330        1.48500       -0.05160
C          0.00060       -0.01010        0.03720
C         -1.31380       -0.80280       -0.13900
C         -0.69140       -2.09820        0.40560
O         -0.39670       -1.71930        1.78570
C          0.62680       -0.90040        1.22280
C          0.83180       -1.79920        0.00710
O          0.86580       -0.71850       -0.91780
H          1.07610        1.84830        0.08390
H         -0.30550        1.83020       -1.02690
H         -0.58010        1.92960        0.72250
H         -2.14230       -0.47550        0.49200
H         -1.60640       -0.83310       -1.19050
H         -1.19510       -3.05740        0.30700
H          1.36480       -0.49410        1.91260
H          1.55680       -2.59620       -0.14410
