16
gdb 7988	3.56484	1.73145	1.26398	3.4661	60.83	-0.2706	0.0037	0.2743	950.8079	0.130547	-420.928348	-420.920722	-420.919778	-420.960281	28.343
C         -0.00020        1.52170        0.01960
C          0.12800        0.01170       -0.02250
C          0.83490       -0.56760       -1.26040
C          1.45190       -1.84580       -0.69830
O          2.60650       -2.28690       -1.35700
C          1.74990       -1.43570        0.74370
O          2.59340       -1.91920        1.44760
O          0.94510       -0.41930        1.10750
H          0.98310        1.99330       -0.06530
H         -0.62340        1.86380       -0.81260
H         -0.46330        1.84760        0.95440
H         -0.85750       -0.45350        0.10660
H          0.14930       -0.72900       -2.09400
H          1.63960        0.09820       -1.58980
H          0.68740       -2.64270       -0.65670
H          3.19200       -2.62830       -0.66570
