19
gdb 8524	4.32159	1.9397	1.62385	1.598	75.64	-0.2269	0.0833	0.3101	863.2318	0.165334	-327.832328	-327.82513	-327.824185	-327.863046	29.024
C         -0.13490        1.57960        0.00270
C         -0.05080        0.05680       -0.00430
C         -1.39030       -0.59150       -0.34430
C          1.19980       -0.57470       -0.65530
C          2.15160       -0.22700        0.53010
C          2.56420       -1.69050        0.60470
N          1.09300       -1.84160        0.24140
C          0.76260       -0.60710        1.12890
H          0.82230        2.05000        0.24590
H         -0.45280        1.95390       -0.97700
H         -0.87280        1.92280        0.73660
H         -1.73750       -0.26770       -1.33240
H         -1.31020       -1.68020       -0.34460
H         -2.15740       -0.29910        0.38220
H          1.46330       -0.67430       -1.71190
H          2.73800        0.68320        0.69040
H          3.24380       -2.07780       -0.16210
H          2.81580       -2.10950        1.58490
H          0.50880       -0.74500        2.18350
