15
gdb 4552	3.95379	1.76332	1.23283	3.1072	64.26	-0.1781	0.0466	0.2247	936.5494	0.120322	-396.018567	-396.010675	-396.009731	-396.050447	29.102
C         -0.09620        1.46120        0.03880
N          0.00500        0.02050       -0.01850
C          0.06350       -0.76520       -1.17730
C          0.08030       -2.05020       -0.71630
O          0.12260       -3.18520       -1.45150
N          0.05940       -2.09990        0.65220
C          0.01650       -0.83560        1.03390
N         -0.09630       -0.39070        2.35390
H          0.88100        1.94830       -0.06640
H         -0.74830        1.81760       -0.76300
H         -0.53470        1.74580        0.99770
H          0.09410       -0.33510       -2.16200
H          0.13490       -3.91100       -0.81640
H         -0.15110       -1.19470        2.96730
H          0.67700        0.19590        2.64880
