17
gdb 2223	3.5915	2.78296	2.08	1.7883	64.1	-0.2284	0.0799	0.3083	714.6112	0.147788	-309.67984	-309.672685	-309.67174	-309.710496	26.876
C          0.01410        1.57150        0.02500
C          0.06160        0.06080        0.08450
C          1.30690       -0.73780       -0.17610
O          2.47120       -0.03780        0.27620
C          1.98840       -0.10390        1.64390
C          0.68140       -0.76530        1.20560
C         -0.04480       -1.83050        1.97350
H          1.00100        1.99900        0.21760
H         -0.29930        1.90660       -0.96940
H         -0.69250        1.98280        0.75400
H         -0.82560       -0.43800       -0.30460
H          1.44140       -1.48850       -0.94790
H          2.62440       -0.77010        2.23980
H          1.93980        0.88180        2.12200
H         -0.59680       -1.40730        2.82190
H         -0.77130       -2.34770        1.33860
H          0.64760       -2.58250        2.36940
