13
gdb 16127	4.81941	1.67824	1.45886	3.1701	58.9	-0.2823	-0.0084	0.2739	829.2325	0.096163	-398.585361	-398.578864	-398.57792	-398.616081	23.913
N          0.00150       -1.12720        0.15420
C          0.03630        0.02420        0.06160
C          0.03890        1.45630       -0.08750
C         -0.93180        2.14370       -1.03820
O         -0.42330        3.45850       -1.19300
C          0.98180        3.46460       -0.96960
C          1.24640        2.30040       -0.03940
O          0.34560        2.24600        1.06650
H         -0.96020        1.58930       -1.98890
H         -1.94620        2.21700       -0.63660
H          1.55110        3.32150       -1.90180
H          1.24670        4.43440       -0.53850
H          2.24410        1.90370        0.12300
