19
gdb 6397	2.96175	1.35721	1.09918	2.3269	68.34	-0.2646	0.0595	0.3241	1159.3083	0.163838	-402.261393	-402.251732	-402.250788	-402.296106	34.492
C          0.01750        1.55640        0.07230
C         -0.02270        0.02650        0.05790
C         -1.43460       -0.55020       -0.00900
C         -1.46340       -2.07170       -0.10500
O         -2.10810       -0.12770        1.20380
C         -3.45780       -0.03040        1.14110
N         -3.95400        0.30990        2.36990
O         -4.13010       -0.23960        0.15710
H          1.04730        1.92230        0.12380
H         -0.44020        1.97240       -0.83200
H         -0.52620        1.95210        0.93430
H          0.53210       -0.35460       -0.80770
H          0.47740       -0.37300        0.94920
H         -1.98260       -0.12040       -0.85340
H         -2.49470       -2.42870       -0.14820
H         -0.94820       -2.40240       -1.01240
H         -0.96550       -2.52390        0.75880
H         -3.32320        0.68200        3.05930
H         -4.91050        0.61880        2.38940
