15
gdb 21226	3.39569	1.85951	1.22184	4.8762	63.99	-0.2319	-0.0206	0.2113	960.0246	0.118626	-395.946049	-395.938113	-395.937169	-395.978465	28.044
C          0.06380        1.45330        0.00140
N         -0.08770        0.00590       -0.05360
C          0.56240       -0.68950       -1.04060
N          1.14070       -0.12680       -2.07270
O          1.59710       -1.18020       -2.84560
N          1.30720       -2.37890       -2.26790
C          0.67210       -2.11780       -1.16090
C          0.16780       -3.17190       -0.23510
H          1.10500        1.76920        0.15290
H         -0.28230        1.88630       -0.94030
H         -0.55320        1.84160        0.81420
H         -0.10120       -0.45960        0.84090
H          0.64210       -3.09710        0.75070
H         -0.91380       -3.07830       -0.08830
H          0.38130       -4.16150       -0.64200
