17
gdb 16681	4.32753	1.69662	1.59221	3.8278	68.09	-0.2367	0.0234	0.2602	866.6546	0.144271	-363.87433	-363.867546	-363.866602	-363.904934	27.072
C         -0.15290        1.55780        0.01090
C          0.00570        0.04410        0.01600
C          1.13260       -0.60290       -0.84820
C          2.13190       -0.24830        0.29170
C          0.87090       -0.59770        1.16560
C          0.75970       -2.08730        0.80390
O          0.67810       -3.06400        1.50420
N          0.83290       -2.03110       -0.59310
H          0.78300        2.09630        0.18070
H         -0.56110        1.89490       -0.94830
H         -0.85590        1.86480        0.79230
H         -0.96860       -0.43020       -0.13480
H          1.29250       -0.36680       -1.89960
H          3.01350       -0.88570        0.39750
H          2.41990        0.80180        0.34050
H          0.77080       -0.34220        2.21780
H          1.32310       -2.76520       -1.08410
