20
gdb 12285	3.13149	1.489	1.23166	0.3701	71.11	-0.2478	0.0542	0.302	1085.1036	0.175441	-386.130579	-386.121323	-386.120378	-386.164978	33.468
C          0.32410        1.39790        0.17290
C          0.05890       -0.10370        0.02610
C          0.52860       -0.63360       -1.31850
O          1.96320       -0.52210       -1.49520
C          2.10610       -1.93230       -1.79440
C          3.11100       -2.62720       -0.89730
C          0.58880       -2.17010       -1.54640
O          0.19630       -3.02830       -0.50630
H          1.38890        1.61060        0.04260
H         -0.22750        1.97060       -0.58060
H          0.01920        1.75960        1.15920
H          0.57230       -0.64150        0.83370
H         -1.01120       -0.32070        0.13130
H          0.00180       -0.10360       -2.12610
H          2.38870       -2.07280       -2.84720
H          2.85680       -2.51630        0.16180
H          3.16190       -3.69500       -1.13170
H          4.10370       -2.19160       -1.04520
H          0.04160       -2.51460       -2.42580
H          0.63730       -2.75780        0.30520
