22
gdb 7588	2.53371	1.66801	1.41607	1.3258	77.98	-0.2496	0.0806	0.3302	1049.7653	0.198057	-350.197718	-350.187957	-350.187013	-350.23136	36.98
C          0.11260        1.43880       -0.28460
C          0.02930       -0.03060        0.15470
C          0.67590       -0.24180        1.53270
C         -1.40530       -0.56450        0.10660
C         -2.42380        0.10390        1.01430
C         -1.91150       -1.06030       -1.24060
C         -1.59130       -2.03930       -0.13550
O         -0.44490       -2.83910       -0.22230
H          1.15660        1.76350       -0.34610
H         -0.34530        1.58860       -1.26800
H         -0.39310        2.10310        0.42480
H          0.60550       -0.62750       -0.55980
H          0.64350       -1.29680        1.81790
H          1.72470        0.07350        1.51660
H          0.17420        0.34190        2.31240
H         -2.56600        1.15790        0.75240
H         -3.39970       -0.38500        0.93110
H         -2.12190        0.05670        2.06580
H         -2.94970       -0.89490       -1.51110
H         -1.21520       -1.02450       -2.07300
H         -2.43120       -2.51880        0.36910
H         -0.58450       -3.48360       -0.92350
