14
gdb 18920	4.11848	2.39736	2.14157	0.6382	58.35	-0.2231	0.0722	0.2954	671.678	0.108005	-382.467801	-382.462199	-382.461255	-382.497103	23.472
O         -0.08420        1.39620        0.08960
C          0.04930        0.02860        0.04990
C          0.02350       -0.85000       -1.18390
O          1.00160       -1.85100       -1.15090
C          1.07440       -2.10730        0.22570
C         -0.26980       -1.92970        0.91080
C          0.81800       -0.86810        1.05820
C         -1.02840       -1.03260       -0.08460
H          0.67470        1.79020       -0.35660
H         -0.22480       -0.47510       -2.16770
H          1.78610       -2.87500        0.49860
H         -0.69210       -2.60850        1.63760
H          1.38290       -0.54740        1.92220
H         -2.09480       -0.96110       -0.24240
