14
gdb 3624	5.42551	3.80792	3.55447	1.5952	58.74	-0.2176	0.081	0.2986	487.0866	0.116192	-287.337578	-287.333162	-287.332218	-287.365326	18.903
C         -0.03210        1.53750        0.11390
C          1.50010        1.50020       -0.03450
C          1.99580        0.58780        1.11450
C          2.07570       -0.65600        0.24160
C          0.85740       -0.43680        1.08710
N         -0.01990        0.03300       -0.03090
C          1.30270        0.15820       -0.81980
H         -0.47320        1.91540        1.04120
H         -0.53910        1.97630       -0.75120
H          2.11900        2.33590       -0.35980
H          2.55730        0.84150        2.00290
H          2.78480       -1.47030        0.19370
H          0.48270       -0.97250        1.94920
H          1.27930        0.03410       -1.90070
