15
gdb 5297	4.82139	1.6812	1.2563	2.4727	69.44	-0.2232	-0.031	0.1923	924.7204	0.119911	-362.730084	-362.722988	-362.722044	-362.761523	26.48
C         -0.01180        1.51060        0.00830
C          0.06040       -0.00120        0.00160
O          1.09950       -0.61610       -0.00870
N         -1.17290       -0.68030        0.00880
C         -2.45480       -0.13690        0.02110
C         -3.35100       -1.16490        0.02430
C         -2.60380       -2.39020        0.01360
C         -1.27960       -2.06620        0.00430
H          1.00680        1.89580        0.00170
H         -0.54830        1.88250       -0.86980
H         -0.53400        1.87530        0.89790
H         -2.60640        0.92860        0.02640
H         -4.42580       -1.06460        0.03320
H         -3.00870       -3.39070        0.01290
H         -0.38290       -2.66100       -0.00520
