16
gdb 16158	4.59119	1.6429	1.4029	1.6646	64.45	-0.2464	-0.0015	0.2449	892.4705	0.130769	-383.722602	-383.715469	-383.714524	-383.754116	27.261
O          0.05670        1.34690       -0.36280
C          0.06280        0.01250        0.12190
C         -1.33390       -0.53000        0.24990
C         -2.32300        0.04240        1.26640
C         -3.28080       -1.10720        1.50200
C         -2.94140       -2.19950        0.81240
C         -1.73680       -1.92210       -0.02590
O         -1.95340       -0.87370       -1.00410
H         -0.38420        1.32680       -1.21980
H          0.65030       -0.65170       -0.52890
H          0.55040        0.04730        1.10200
H         -1.81250        0.34690        2.18930
H         -2.82800        0.93340        0.87750
H         -4.15220       -1.01360        2.14050
H         -3.46400       -3.14760        0.81230
H         -1.04840       -2.70180       -0.33910
