18
gdb 6885	2.55392	1.57045	1.29734	2.817	70.65	-0.2406	-0.0177	0.2229	1034.057	0.150716	-384.940114	-384.93104	-384.930096	-384.973332	33.329
C         -0.26270        1.02880       -1.80830
C         -0.06380       -0.15310       -0.88350
C          1.32330       -0.63640       -0.41270
C          2.57210        0.07060       -0.75140
O          3.64680       -0.47420       -0.86070
C          0.27280       -0.04440        0.55850
C          0.50420        1.27290        1.26360
O         -0.38840       -0.99200        1.34960
H          0.36060        1.88780       -1.55050
H         -0.03220        0.75350       -2.84240
H         -1.30600        1.35990       -1.77560
H         -0.72420       -0.98970       -1.09410
H          1.44460       -1.71150       -0.33450
H          2.48300        1.16920       -0.90400
H          0.98240        2.01730        0.62430
H         -0.45220        1.67660        1.61040
H          1.14930        1.13120        2.13890
H          0.15620       -1.16730        2.12590
