22
gdb 6971	2.44259	2.16069	1.60679	0.0934	82.26	-0.2353	0.0289	0.2642	956.1007	0.200114	-313.093367	-313.084811	-313.083867	-313.125476	34.077
C         -0.14770        1.56420       -0.09650
C         -0.01110        0.03430        0.01180
C          0.79240       -0.51520       -1.14660
C          1.99790       -0.93950       -0.77410
C          2.20830       -0.79070        0.71120
C          0.77590       -0.51020        1.26360
C          0.80000        0.43760        2.46790
C          0.13660       -1.84570        1.68750
H          0.83100        2.05510       -0.10080
H         -0.65180        1.83230       -1.03130
H         -0.73620        1.97950        0.72740
H         -1.02830       -0.38140        0.01750
H          0.42020       -0.49700       -2.16610
H          2.76060       -1.32900       -1.44000
H          2.65240       -1.68140        1.17320
H          2.89760        0.03850        0.92720
H          1.26030        1.39990        2.22600
H         -0.20940        0.63300        2.84750
H          1.37580       -0.00570        3.28830
H          0.69790       -2.30700        2.50770
H         -0.89360       -1.69660        2.02960
H          0.11510       -2.55300        0.85220
