20
gdb 18789	3.28414	2.24049	1.97724	0.1779	77.23	-0.2543	0.0849	0.3391	813.7679	0.17942	-311.833179	-311.826491	-311.825547	-311.863532	27.759
C         -0.25150        1.57350        0.02590
C          0.05820        0.08380        0.01570
C          1.04080       -0.52710       -1.02350
C          2.42790        0.16320       -1.08730
C          2.85070       -0.53800        0.22690
C          2.21960        0.10220        1.48760
C          0.86340       -0.57900        1.16940
C          1.59300       -1.47610        0.10290
H          0.65350        2.18230        0.11360
H         -0.76240        1.87450       -0.89590
H         -0.90500        1.83280        0.86690
H         -0.88230       -0.47500       -0.07360
H          0.61240       -0.86700       -1.96790
H          3.00350       -0.22400       -1.93390
H          2.46670        1.25760       -1.12000
H          3.88080       -0.88880        0.30190
H          2.65320       -0.32660        2.39650
H          2.24850        1.19370        1.57750
H          0.29010       -0.96140        2.01560
H          1.59980       -2.56340        0.07770
