20
gdb 6147	4.67099	1.11182	1.06077	3.057	76.48	-0.2445	-0.0204	0.2241	1188.5173	0.175145	-349.015121	-349.006297	-349.005353	-349.048528	32.868
C         -0.21860        1.51580       -0.00720
C         -0.01050       -0.00040        0.00550
C         -1.32620       -0.73400       -0.22920
C          1.18990       -0.43220       -0.89560
C          2.11560       -0.46150        0.36000
C          0.82680       -0.46410        1.23970
C          3.01810       -1.65320        0.49600
O          4.20450       -1.61630        0.69990
H          0.71940        2.05560        0.16030
H         -0.62540        1.84580       -0.96970
H         -0.92220        1.81970        0.77610
H         -1.76350       -0.46040       -1.19660
H         -1.18480       -1.82010       -0.22140
H         -2.06000       -0.48650        0.54700
H          1.04640       -1.43500       -1.31270
H          1.48570        0.24170       -1.70350
H          2.70850        0.44740        0.47450
H          0.83590        0.18450        2.11910
H          0.55850       -1.47790        1.55660
H          2.48530       -2.63080        0.38960
