16
gdb 20224	4.33534	2.74173	2.36637	0.2964	70.28	-0.2317	0.0162	0.2479	650.6439	0.133961	-309.416542	-309.411537	-309.410593	-309.445149	22.364
C         -0.04810        1.55820       -0.03430
C          1.19780        2.05210       -0.04400
C          2.16900        0.90030       -0.01730
C          2.10350        0.04710        1.29360
C          0.68390       -0.51560        1.30470
C          1.78170       -1.22760        0.55950
C          1.40650       -0.30520       -0.65570
C          0.03400        0.05400       -0.00060
H         -0.96700        2.12860        0.03480
H          1.47730        3.09750        0.01570
H          3.18460        1.08060       -0.37040
H          2.67000        0.18560        2.20520
H          0.18880       -0.79790        2.22460
H          2.17910       -2.22870        0.63310
H          1.48790       -0.53140       -1.71800
H         -0.83400       -0.51230       -0.33890
