14
gdb 21919	3.33432	1.84219	1.20935	2.4625	60.1	-0.206	0.0248	0.2308	929.6563	0.108251	-415.861201	-415.853448	-415.852504	-415.89369	27.602
O         -0.12330        1.42220        0.36830
C          0.01850        0.07380       -0.07010
C         -1.32810       -0.56230       -0.00910
C         -1.73280       -1.87690        0.12220
O         -0.87870       -2.93470        0.24890
C         -3.14280       -1.84040        0.07750
N         -3.58970       -0.59090       -0.06390
N         -2.47870        0.15340       -0.13230
H          0.69140        1.89000        0.16380
H          0.41590        0.04280       -1.09790
H          0.71580       -0.49590        0.56170
H         -1.39420       -3.72730        0.42380
H         -3.84030       -2.66320        0.14720
H         -2.53750        1.15710       -0.16420
