17
gdb 5331	6.24685	1.53574	1.26206	1.859	77.62	-0.1915	0.0589	0.2505	974.4328	0.143688	-326.734522	-326.727073	-326.726129	-326.767593	27.227
C         -0.25590        1.53400        0.08240
C          0.03300        0.06260        0.00840
C          0.05400       -0.69560       -1.15620
N          0.35490       -1.97090       -0.76360
C          0.61720       -3.39470       -1.01350
C          0.82130       -3.53390        0.54620
C          0.52240       -2.04340        0.58320
C          0.33220       -0.79360        1.12480
H          0.58300        2.09360        0.51320
H         -0.45000        1.94730       -0.91190
H         -1.13360        1.74710        0.70430
H         -0.11970       -0.41160       -2.18160
H         -0.23610       -3.94010       -1.42780
H          1.50550       -3.58480       -1.62340
H          0.09670       -4.18730        1.04000
H          1.82930       -3.83500        0.84460
H          0.38900       -0.49290        2.15970
