19
gdb 11996	2.67089	2.0993	1.73865	2.5697	70.4	-0.2239	0.0673	0.2912	878.0115	0.1641	-365.016922	-365.008637	-365.007693	-365.048713	32.284
C         -0.22900        1.57110       -0.11030
C          0.05270        0.08310        0.00260
N          0.95780       -0.52550       -1.04810
C          2.31650       -0.00540       -0.80840
C          1.81950       -1.07530        0.07390
C          0.90430       -0.53590        1.17140
C          1.49640        0.36520        2.24710
O          0.25390       -1.65110        1.76540
H          0.67280        2.18530       -0.03590
H         -0.70340        1.78840       -1.07300
H         -0.91440        1.89310        0.68130
H         -0.88660       -0.47490       -0.04450
H          3.01150       -0.28780       -1.59350
H          2.46250        1.00360       -0.43270
H          2.19620       -2.09260        0.06230
H          2.06370        1.19990        1.82790
H          0.70160        0.79130        2.87260
H          2.16150       -0.21600        2.89320
H         -0.39550       -1.31680        2.39360
