18
gdb 17264	3.10622	2.12568	1.80281	1.2975	72.67	-0.2536	0.0787	0.3323	830.4905	0.153936	-347.734923	-347.727783	-347.726839	-347.765717	28.92
O         -0.11030        1.33060        0.00940
C          0.01370       -0.04400       -0.00130
C          0.65520       -0.96910       -1.08960
C          0.03760       -1.91750       -0.01660
C          0.64380       -0.98690        1.07830
C         -1.19200       -0.98850       -0.01540
C         -2.46910       -0.97960        0.74420
C         -2.46110       -0.96700       -0.78810
H          0.77030        1.72040        0.01690
H          0.18080       -0.96570       -2.07320
H          1.74740       -0.96370       -1.15670
H          0.04490       -3.00460       -0.02550
H          1.73530       -0.98280        1.15690
H          0.15920       -0.99970        2.05680
H         -2.79560       -1.89000        1.23760
H         -2.76480       -0.06580        1.25010
H         -2.75150       -0.04500       -1.28200
H         -2.78240       -1.86910       -1.29980
