17
gdb 10265	2.58102	1.70826	1.29362	2.6396	70.59	-0.233	-0.0305	0.2026	1008.675	0.138226	-363.812567	-363.803181	-363.802237	-363.846633	32.983
C         -0.07570        1.54220       -0.09200
N          0.04950        0.13120        0.25040
C          0.75690       -0.06440        1.51250
C         -1.22240       -0.58810        0.18720
C         -0.92860       -2.09530        0.07460
O         -1.56940       -2.97280        0.57960
C         -2.19200       -0.26470        1.23820
C         -2.94940        0.04370        2.11880
H          0.92190        1.98950       -0.13650
H         -0.53740        1.64400       -1.07920
H         -0.67820        2.11540        0.63290
H          0.24170        0.38970        2.37470
H          0.87500       -1.13370        1.71530
H          1.75500        0.37570        1.43270
H         -1.67020       -0.33970       -0.78950
H         -0.04130       -2.28660       -0.56820
H         -3.63160        0.29790        2.89230
