15
gdb 1432	7.74358	1.14878	1.01918	3.4237	68.17	-0.2525	-0.0431	0.2094	1147.9697	0.121957	-308.519863	-308.511019	-308.510074	-308.55588	28.716
C         -0.02570        1.51640        0.10480
C          0.14130        0.00410       -0.01510
C          0.60930       -0.44320       -1.39220
O          0.82550        0.33420       -2.29860
C          0.78210       -1.87460       -1.55300
C          0.92250       -3.06720       -1.67570
C          1.09850       -4.49910       -1.84640
H          0.91760        2.03070       -0.09540
H         -0.75690        1.88730       -0.61790
H         -0.36240        1.78680        1.10950
H          0.86050       -0.38300        0.71940
H         -0.79650       -0.52490        0.20240
H          2.13540       -4.73320       -2.11100
H          0.84940       -5.04810       -0.93240
H          0.45970       -4.87480       -2.65310
