16
gdb 10256	2.17774	2.04875	1.10851	4.5407	69.23	-0.3347	-0.0092	0.3255	1044.5112	0.129246	-342.815671	-342.806819	-342.805875	-342.849124	31.187
C         -0.02690        1.55200        0.00040
C          0.00950        0.02070       -0.03320
C          0.72080       -0.50140       -1.28570
C          0.70750       -0.53330        1.25710
C          0.05440       -0.05460        2.48380
N         -0.46480        0.34940        3.43260
C          0.76310       -2.00210        1.26420
N          0.81070       -3.15540        1.23790
H          0.98690        1.96920        0.00080
H         -0.54030        1.92990       -0.88790
H         -0.55240        1.92990        0.88110
H         -1.01770       -0.36110       -0.02070
H          1.75760       -0.14760       -1.32500
H          0.73060       -1.59360       -1.32570
H          0.21140       -0.13460       -2.18100
H          1.74260       -0.16390        1.26870
