20
gdb 2858	6.41885	1.32723	1.21234	1.207	72.31	-0.2193	0.0918	0.3111	1068.0576	0.182388	-291.017787	-291.009232	-291.008288	-291.050853	30.779
C          0.29810       -2.87940        0.34170
C         -0.06440       -1.51020        0.92970
C         -1.49980       -1.13160        0.61860
C         -2.61340       -1.45670        1.55770
N         -2.23430       -0.06980        1.30510
C         -1.61140        0.67750        2.39300
C         -2.67710        1.42580        3.19100
H          1.34300       -3.13310        0.54440
H         -0.33060       -3.66880        0.76650
H          0.15680       -2.89270       -0.74460
H          0.10470       -1.52210        2.01090
H          0.60900       -0.74690        0.51750
H         -1.72500       -1.16320       -0.44870
H         -3.59050       -1.76530        1.19440
H         -2.33060       -1.89200        2.51730
H         -1.02720        0.03970        3.07730
H         -0.90960        1.39340        1.94790
H         -2.21880        2.02210        3.98640
H         -3.24820        2.09140        2.53790
H         -3.37940        0.72520        3.65480
