18
gdb 5251	6.52975	1.01072	0.93105	0.8359	73.82	-0.218	0.0241	0.2421	1270.0968	0.154544	-347.840014	-347.832062	-347.831118	-347.873096	29.069
C          0.02600        1.58550       -0.04120
C          0.11160        0.05780       -0.05860
C          0.61130       -0.52740        1.27540
C          0.71950       -2.02330        1.27040
C         -0.03670       -2.90910        1.97340
O          0.33260       -4.19250        1.70810
C          1.35120       -4.12590        0.81220
C          1.63280       -2.83430        0.50620
H          1.00520        2.03550        0.15800
H         -0.33080        1.97550       -0.99950
H         -0.66140        1.93570        0.73720
H         -0.87140       -0.37100       -0.28760
H          0.77900       -0.26660       -0.86660
H          1.58950       -0.08610        1.51060
H         -0.06430       -0.21540        2.08110
H         -0.84200       -2.79030        2.68020
H          1.76190       -5.07190        0.49970
H          2.39650       -2.48850       -0.17370
