17
gdb 13785	4.14082	1.21014	1.10138	4.0182	65.9	-0.2464	-0.0236	0.2228	1119.5237	0.140739	-400.982607	-400.973757	-400.972813	-401.016824	31.126
C          0.70180        1.35300        0.24720
C         -0.33880        0.27290        0.01410
O         -1.10080       -0.08720        0.88140
C         -0.35920       -0.30040       -1.37980
N         -0.93380       -1.64640       -1.56150
C         -1.63010       -0.51100       -2.15990
C         -3.01640       -0.24530       -1.61680
O         -3.93090       -1.20480       -2.12800
H          0.59730        1.75710        1.25430
H          1.70940        0.93950        0.11960
H          0.59370        2.15670       -0.49050
H          0.50990       -0.04110       -1.98160
H         -0.39360       -2.15290       -2.25780
H         -1.53790       -0.37750       -3.23740
H         -2.99240       -0.24810       -0.52270
H         -3.37320        0.73200       -1.95860
H         -3.65580       -2.05520       -1.76730
