12
gdb 9109	7.14202	0.93501	0.83101	4.0215	63.11	-0.2905	-0.0905	0.1999	1284.733	0.081584	-414.680172	-414.671981	-414.671037	-414.713653	26.921
C          0.09120        1.36480       -0.09360
N         -0.02410       -0.06940       -0.27650
C         -1.11100       -0.60700        0.02030
O         -1.21320       -1.98350       -0.15820
C         -2.38200       -2.57310        0.16030
O         -3.36940       -2.04720        0.58830
C         -2.28630       -4.01200       -0.09700
N         -2.27070       -5.15210       -0.27930
H          0.92200        1.56790        0.58950
H          0.34660        1.82370       -1.05410
H         -0.81810        1.84250        0.29910
H         -2.01990       -0.14690        0.41020
