16
gdb 7210	4.08744	1.07177	0.89544	4.3638	72.43	-0.264	-0.0605	0.2034	1286.6438	0.12693	-383.737045	-383.727437	-383.726493	-383.773716	32.387
C          0.00780        1.35430        0.11110
C          0.03330       -0.09350        0.00400
C          0.03650       -1.29750       -0.08540
C          0.06350       -2.73110       -0.20420
O         -0.92520       -3.38990       -0.47390
C          1.40820       -3.43420        0.00410
C          1.97700       -3.16710        1.40440
O          1.25120       -4.80870       -0.21600
H          1.00920        1.78150       -0.00330
H         -0.64280        1.79190       -0.65330
H         -0.37850        1.65810        1.09030
H          2.10070       -3.00550       -0.74140
H          2.15580       -2.10040        1.56350
H          1.28670       -3.53290        2.17040
H          2.92300       -3.70340        1.51140
H          0.31260       -4.92740       -0.43690
