16
gdb 20079	4.83529	1.51846	1.36424	2.8043	60.11	-0.2505	0.0881	0.3387	920.8527	0.130887	-420.843526	-420.836263	-420.835319	-420.876348	25.77
C         -0.61220        1.08800       -0.15110
O          0.69320        1.26920        0.40750
C          0.25610       -0.05750        0.13520
C          0.05280       -0.94410        1.35050
O         -0.93620       -0.46330        2.24390
C         -2.05770       -1.33700        2.15320
C         -1.41060       -2.65550        1.74190
O         -0.35780       -2.22120        0.89120
H         -1.43370        1.31110        0.52470
H         -0.73180        1.42470       -1.17980
H          0.77150       -0.55850       -0.68510
H          0.99450       -1.01370        1.91770
H         -2.55310       -1.36370        3.12660
H         -2.77050       -0.98990        1.39160
H         -1.01610       -3.19560        2.61480
H         -2.06560       -3.31820        1.17160
