10
gdb 4211	6.0816	2.76907	1.90272	1.2151	50.27	-0.268	-0.0598	0.2082	587.5551	0.068827	-363.508158	-363.503312	-363.502368	-363.53684	17.906
F          0.00290        0.04700        0.00350
C         -0.01070        1.37320        0.01030
C         -1.23980        2.03730        0.03040
N         -1.28560        3.36460        0.03770
C         -0.11210        4.00750        0.02500
C          1.09640        3.32160        0.00520
N          1.14900        1.98400       -0.00230
H         -2.17270        1.48200        0.04030
H         -0.14040        5.09280        0.03090
H          2.04520        3.85050       -0.00510
