17
gdb 16580	3.19334	1.89212	1.52366	2.3746	69.14	-0.2261	-0.0202	0.2059	898.1506	0.14096	-363.831179	-363.823219	-363.822275	-363.86338	29.283
C         -0.05480        1.54860        0.07540
C         -0.01890        0.02390       -0.02060
C          0.75650       -0.55890       -1.22260
C          1.83500       -1.17630       -0.32330
N          0.93740       -1.97760       -1.14770
C         -0.04450       -2.89870       -0.58210
C          1.11090       -0.57800        0.86600
O          1.40130       -0.42170        2.01820
H          0.93420        1.98300       -0.10500
H         -0.74890        1.96990       -0.65850
H         -0.37830        1.85750        1.07300
H         -1.02130       -0.38970        0.12550
H          0.91670       -0.05450       -2.16990
H          2.90640       -1.28840       -0.45200
H         -0.57390       -2.53990        0.30960
H         -0.78420       -3.12830       -1.35500
H          0.47230       -3.82610       -0.32040
