18
gdb 2693	13.80667	0.81243	0.78586	4.2049	69.24	-0.3144	0.038	0.3523	1423.1874	0.159492	-289.872162	-289.863554	-289.86261	-289.905678	29.577
C         -0.03670        1.57760       -0.01940
C         -8.77960        0.04730        0.00010
C          0.73060       -0.52050        1.22190
C          0.76700       -2.05100        1.24070
C          1.50620       -2.59940        2.47780
C          1.54970       -4.05960        2.50990
N          1.57400       -5.21490        2.51850
H          0.97470        1.99850       -0.03320
H         -0.56420        1.95120       -0.90220
H         -0.54710        1.97340        0.86560
H         -1.02500       -0.34540       -0.02220
H          0.48500       -0.32050       -0.91360
H          1.75770       -0.13010        1.24590
H          0.24590       -0.15520        2.13820
H         -0.25300       -2.45180        1.22840
H          1.25890       -2.42680        0.33620
H          2.53540       -2.22160        2.50320
H          1.02190       -2.24690        3.39630
