14
gdb 11716	6.08	1.37355	1.25757	2.0725	63.49	-0.2634	0.0022	0.2656	926.4887	0.108207	-378.685611	-378.67869	-378.677745	-378.716731	26.177
O         -0.01120        1.41970       -0.10450
C          0.03200        0.02910       -0.02070
C          0.36990       -0.63770        1.37270
C         -1.00570       -1.31210        1.32680
N         -1.99780       -0.20430        1.20730
C         -1.32450       -0.70010       -0.00620
C         -1.37820       -2.58910        1.83740
N         -1.67090       -3.62700        2.25830
H         -0.70090        1.70560        0.50980
H          0.69600       -0.32650       -0.81040
H          1.19960       -1.34330        1.31090
H          0.51670        0.04940        2.20790
H         -2.93410       -0.60620        1.24050
H         -1.89140       -1.11130       -0.83220
