15
gdb 19113	5.29765	2.07555	2.01611	0.7339	62.42	-0.2295	0.0622	0.2918	701.2435	0.120639	-362.559474	-362.553847	-362.552903	-362.58884	23.331
O          0.01380        1.35950        0.15900
C          0.03620       -0.04740        0.03220
C         -1.40560       -0.56840       -0.14200
C         -1.25190       -2.05190       -0.51290
C         -1.43310       -1.83290       -1.96660
C         -1.31750       -0.30850       -1.70260
C          0.20250       -0.52500       -1.42870
N         -0.04840       -2.02160       -1.43220
H          0.90680        1.68730        0.01140
H          0.66500       -0.52610        0.79600
H         -2.22610       -0.24230        0.49300
H         -1.39160       -2.93780        0.09320
H         -1.85350       -2.44900       -2.75190
H         -1.78250        0.52430       -2.21920
H          1.02830       -0.21720       -2.07040
