21
gdb 6088	4.40825	0.89341	0.77144	3.3858	75.74	-0.2432	0.0357	0.2789	1500.8904	0.186765	-366.313776	-366.303424	-366.30248	-366.350074	36.484
C         -0.02050        1.53440        0.21000
C         -0.04410        0.01490       -0.01170
C         -1.48930       -0.49720       -0.07790
C          0.72960       -0.41300       -1.26990
C          2.22850       -0.09950       -1.23800
C          2.98800       -0.80690       -2.36120
N          4.10230       -0.14990       -2.80260
O          2.64300       -1.87640       -2.82520
H          0.99580        1.91740        0.34560
H         -0.46390        2.05930       -0.64520
H         -0.59580        1.80920        1.10040
H          0.44140       -0.45990        0.85420
H         -2.02260       -0.05390       -0.92750
H         -1.52120       -1.58500       -0.19780
H         -2.04400       -0.24100        0.83090
H          0.62380       -1.49170       -1.42100
H          0.27870        0.06180       -2.15220
H          2.41830        0.97870       -1.27740
H          2.65990       -0.45540       -0.29130
H          4.43160        0.69590       -2.37240
H          4.69420       -0.61520       -3.47120
