14
gdb 9863	5.82145	0.93409	0.85891	6.1679	77.76	-0.268	-0.0421	0.2258	1288.0466	0.106841	-341.546621	-341.538649	-341.537705	-341.579315	28.405
C         -0.05080        1.50490        0.01530
C          0.00060       -0.01350       -0.02230
C          0.74210       -0.69400       -1.13330
N          1.28860       -0.70880        0.22440
C         -1.14630       -0.67280        0.54530
C         -2.13410       -1.19240        1.00960
C         -3.24490       -1.78710        1.53340
N         -4.19320       -2.29060        1.97790
H          0.83290        1.92420       -0.47570
H         -0.93950        1.87920       -0.50100
H         -0.08130        1.86730        1.04720
H          0.39790       -1.65650       -1.49790
H          1.19070       -0.04820       -1.88400
H          2.02260       -0.01000        0.32080
