16
gdb 5115	3.43663	2.06972	1.31301	2.9614	67.37	-0.1898	0.0487	0.2385	908.5869	0.130352	-379.962634	-379.954105	-379.953161	-379.996519	29.716
C          0.04450        1.45450        0.00920
N          0.04040        0.00530        0.00470
C          0.05670       -0.80070       -1.10930
O          0.07870       -0.20630       -2.33000
C          0.04580       -2.09330       -0.66480
N          0.02280       -2.10150        0.71740
C          0.02000       -0.84580        1.09370
C         -0.00200       -0.35300        2.50010
H          0.92660        1.84240        0.52850
H          0.06200        1.80580       -1.02240
H         -0.85160        1.84740        0.50000
H          0.08770       -0.89570       -3.00070
H          0.05290       -3.00320       -1.24480
H          0.87900        0.25430        2.74290
H         -0.88720        0.25920        2.71350
H         -0.01550       -1.21890        3.16340
