15
gdb 19346	5.3375	1.66649	1.50626	3.7928	66.01	-0.2364	-0.042	0.1944	840.9032	0.118303	-362.57695	-362.57027	-362.569326	-362.60773	25.72
O         -0.04050        0.08730       -0.51330
C          0.12910        1.04720        0.19940
C          1.24430        2.00940        0.04690
C          2.10020        2.00780       -1.17200
N          2.69610        1.49910        0.05650
C          3.01490        2.63760        1.01160
C          2.65990        4.04030        0.59950
C          1.58420        3.10490        1.07640
H         -0.56970        1.27720        1.03500
H          1.87600        1.20770       -1.87060
H          2.43580        2.93450       -1.62280
H          3.71890        2.41020        1.80070
H          2.95610        4.77560        1.34190
H          2.71500        4.41440       -0.41620
H          0.96590        3.29440        1.94420
