17
gdb 14224	4.0806	1.80362	1.75716	1.4263	67.63	-0.2427	0.0641	0.3068	832.4749	0.142727	-363.808444	-363.801322	-363.800378	-363.839321	27.858
C         -0.05700        1.46190        0.05400
C          0.11020       -0.02260       -0.04610
C          0.07600       -0.88010       -1.30490
C         -0.26150       -2.01900       -0.33250
C          1.00780       -2.22470        0.52910
O          2.26310       -2.40860       -0.08200
C          0.70760       -0.84290        1.05270
N         -0.76570       -0.98250        0.72030
H          0.83710        1.97940       -0.31160
H         -0.91340        1.80050       -0.53830
H         -0.22440        1.76420        1.09230
H         -0.78290       -0.61610       -1.92810
H          0.97940       -0.97550       -1.91340
H         -0.90380       -2.85180       -0.61350
H          0.81950       -2.97200        1.31100
H          2.38980       -3.34830       -0.24580
H          1.03330       -0.40170        1.98810
