15
gdb 13054	4.58622	1.16194	0.97246	3.2503	63.59	-0.2461	-0.0386	0.2075	1132.4176	0.117101	-399.794318	-399.786282	-399.785338	-399.828188	27.63
O         -0.41180        0.08620       -0.43220
C         -0.03570        1.16540       -0.05240
C          1.36900        1.69960       -0.23380
C          1.37630        2.96190       -1.10490
N          0.74990        4.17280       -0.50040
C          1.93420        5.02910       -0.78200
C          2.69850        3.75570       -1.17760
O          3.83580        3.47510       -1.39850
H         -0.72780        1.86850        0.46250
H          1.77190        1.95940        0.75320
H          1.99390        0.92650       -0.68870
H          1.01290        2.72340       -2.11580
H         -0.09470        4.47670       -0.96980
H          1.83140        5.72600       -1.62510
H          2.31960        5.57950        0.08280
