19
gdb 17287	3.01115	2.42104	1.86227	1.5793	74.37	-0.2214	0.08	0.3014	814.8045	0.166654	-327.862488	-327.855515	-327.854571	-327.893034	28.6
C         -0.02300        1.54120       -0.01110
C          0.00810        0.03000        0.01330
C         -1.31350       -0.75740        0.28250
C         -0.61740       -1.54070        1.43990
C          0.70710       -0.77030        1.16730
C          1.68200       -1.36020        0.12450
N          0.87470       -2.09160       -0.88340
C          1.00900       -0.61970       -0.98010
H          0.99030        1.96050       -0.02020
H         -0.54280        1.91200       -0.90360
H         -0.54250        1.94140        0.86630
H         -2.13000       -0.11040        0.61590
H         -1.66090       -1.37330       -0.54820
H         -1.03760       -1.33200        2.42680
H         -0.55840       -2.62030        1.29620
H          1.18710       -0.24600        1.99510
H          2.72640       -1.61180        0.26740
H          1.52820       -2.49670       -1.55260
H          1.41550       -0.16490       -1.87740
