14
gdb 813	4.61505	2.06552	1.51842	0.9638	57.41	-0.2503	-0.002	0.2483	780.2381	0.111986	-361.65225	-361.644826	-361.643881	-361.684083	26.249
O         -0.08250        1.31130       -0.02480
N          0.02680       -0.08700        0.06010
C         -1.10710       -0.64640        0.04390
C         -2.55510       -0.24710       -0.14700
C         -2.84400       -1.74410       -0.49540
C         -1.42240       -2.13360        0.00670
O         -0.68810       -2.94900       -0.87210
H          0.83990        1.58940       -0.02550
H         -3.03170        0.09650        0.77620
H         -2.74110        0.49630       -0.92530
H         -3.68680       -2.21820        0.00870
H         -2.91700       -1.91210       -1.57130
H         -1.45250       -2.56220        1.02160
H          0.24600       -2.76640       -0.72260
