16
gdb 19445	3.27664	2.08579	1.58778	1.595	64.89	-0.2344	0.0698	0.3041	840.0658	0.12936	-383.674422	-383.667316	-383.666372	-383.705755	27.12
C          0.12840        1.54100       -0.07590
C          1.30040        0.58680        0.11140
C         -0.08920        0.06640       -0.04370
O         -0.80070       -0.59870        1.00610
C         -1.28440       -1.61990        0.09770
C         -0.62390       -0.89590       -1.07300
C         -1.01290       -0.73000       -2.46950
O          0.13990       -1.50540       -2.08810
H         -0.20190        2.09990        0.79310
H          0.02100        2.06400       -1.02100
H          1.98830        0.43310       -0.71340
H          1.74120        0.52540        1.10030
H         -0.85730       -2.60580        0.31500
H         -2.37820       -1.67720        0.09080
H         -1.84730       -1.30260       -2.87250
H         -0.79560        0.20320       -2.98720
