15
gdb 13325	5.38357	1.33119	1.08176	2.8706	65.97	-0.2218	-0.01	0.2118	1031.7507	0.119555	-399.824043	-399.816572	-399.815628	-399.856465	26.365
O         -0.32270        0.07350        0.05260
C         -0.08150        1.25800        0.04140
N          1.17310        1.81090       -0.00520
C          2.37820        1.11090       -0.04740
C          2.61990       -0.20010       -0.05230
C          4.10370       -0.41670       -0.10670
O          4.68740        0.89130       -0.13180
C          3.67640        1.87870       -0.09800
H         -0.86410        2.04070        0.06790
H          1.22180        2.81840       -0.00890
H          1.88560       -0.98820       -0.02290
H          4.48470       -0.96880        0.76680
H          4.41910       -0.97360       -1.00290
H          3.73940        2.52440       -0.99090
H          3.80500        2.53060        0.78320
