17
gdb 9526	2.81067	1.85429	1.54167	2.4573	64.6	-0.2427	0.0252	0.2678	910.8667	0.141114	-401.021929	-401.013271	-401.012326	-401.054927	31.259
C         -0.08950        1.56580        0.09040
C          0.02560        0.03790        0.05400
C          0.74530       -0.47170       -1.19300
O          2.06770        0.01870       -1.29720
C          0.67690       -2.01030       -1.44410
N         -0.14530       -1.71310       -2.62600
C         -0.04460       -0.35190       -2.53280
O         -0.38980        0.56250       -3.23750
H          0.90220        2.02770        0.12200
H         -0.61440        1.94170       -0.79280
H         -0.63460        1.89400        0.97970
H          0.57610       -0.31990        0.93320
H         -0.97210       -0.41660        0.09320
H          2.02060        0.88010       -1.72760
H          1.65440       -2.44260       -1.67230
H          0.16390       -2.59870       -0.67790
H         -0.47760       -2.30300       -3.37500
