22
gdb 9433	3.97457	0.87359	0.74839	1.5831	76.49	-0.244	0.0835	0.3275	1581.1855	0.197189	-387.324327	-387.313678	-387.312734	-387.360732	36.425
C         -0.03280        1.37920       -0.08600
O         -0.02280       -0.02490       -0.02860
C          0.67960       -0.52200        1.09200
C          0.66260       -2.04360        1.03040
C          1.34400       -2.70180        2.22920
C          1.23930       -4.22860        2.17340
O          2.69860       -2.26040        2.22470
C          3.38750       -2.43940        3.43890
H          0.98580        1.79490       -0.15020
H         -0.58840        1.66870       -0.98170
H         -0.52520        1.82330        0.79480
H          1.71640       -0.15460        1.09690
H          0.20500       -0.17040        2.02620
H         -0.37680       -2.38510        0.97540
H          1.16010       -2.37050        0.11010
H          0.86080       -2.34530        3.15680
H          0.18990       -4.53940        2.16390
H          1.72160       -4.60800        1.26700
H          1.71550       -4.69920        3.03810
H          4.36400       -1.96060        3.32820
H          2.85700       -1.96790        4.28160
H          3.54880       -3.49880        3.68630
