14
gdb 3656	3.6937	3.2725	1.76251	2.3151	59.64	-0.1973	0.0303	0.2276	692.5555	0.11551	-320.776472	-320.769428	-320.768484	-320.807493	25.132
C         -0.06720        1.52560        0.11450
C          0.00230        0.04290       -0.02650
C         -0.01330       -0.75860       -1.15720
N         -0.14740       -0.30520       -2.49110
C          0.06150       -2.08180       -0.66420
N          0.11820       -2.11520        0.66550
N          0.09550       -0.82020        1.02400
H          0.92290        1.99130        0.20160
H         -0.55600        1.94980       -0.76730
H         -0.64690        1.82070        0.99580
H          0.65260        0.23880       -2.79550
H         -0.24910       -1.08260       -3.13200
H          0.06390       -3.00460       -1.22780
H          0.13380       -0.58540        2.00120
