15
gdb 15301	2.97428	1.68192	1.17607	3.226	69.61	-0.2473	0.0174	0.2647	1001.7394	0.117005	-362.603821	-362.595709	-362.594765	-362.636777	29.256
N         -0.28790        1.17120       -0.03780
C         -0.46800       -0.04460       -0.31450
O         -0.97150       -0.87590        0.63260
C         -0.99630       -2.23420        0.30900
C         -2.12360       -3.01740        0.88060
C         -2.07870       -2.77290       -0.62660
C         -3.01300       -1.88280       -1.24520
C         -3.78500       -1.13410       -1.78360
H          0.07810        1.66070       -0.85180
H         -0.26560       -0.54550       -1.26870
H         -0.01390       -2.69600        0.24210
H         -1.93580       -4.02210        1.24010
H         -2.86160       -2.45030        1.43450
H         -1.77570       -3.61970       -1.23620
H         -4.47320       -0.47170       -2.24740
