16
gdb 12934	2.63695	2.16357	1.68906	4.2613	65.69	-0.236	-0.0036	0.2324	846.5766	0.129042	-383.730625	-383.722752	-383.721808	-383.762631	29.258
C         -0.05460        1.56370        0.00900
C          0.03270        0.06410        0.01820
C         -0.83380       -0.82100        0.87390
O         -1.64370       -1.78600        0.26520
C          0.63730       -0.98840        1.03590
C          1.18650       -1.84630       -0.11310
C          0.65180       -0.76260       -1.07740
O          0.86030       -0.52520       -2.23340
H          0.89460        2.01250       -0.29940
H         -0.82320        1.89790       -0.69590
H         -0.31380        1.95460        0.99770
H         -1.32450       -0.26720        1.67650
H         -1.80690       -2.48730        0.90570
H          1.15880       -0.77290        1.96030
H          2.27800       -1.88970       -0.15790
H          0.77250       -2.85150       -0.21600
