17
gdb 18302	3.09222	2.18544	1.87754	3.4002	63.34	-0.2107	0.0603	0.2711	790.2275	0.144739	-400.956014	-400.949245	-400.948301	-400.986738	26.923
O          0.10670        1.32050        0.23550
C          0.08090       -0.05290        0.03370
C         -1.30750       -0.70010       -0.01680
N         -2.38270        0.26770        0.03860
C         -2.97790        0.53020       -1.27520
C         -1.88250        1.05540       -2.19720
O         -0.82840        0.11600       -2.37520
C         -0.44920       -0.63470       -1.26220
H         -0.81420        1.55250        0.45570
H          0.89220       -0.58240        0.52790
H         -1.49100       -1.66330        0.45230
H         -3.07650        0.00540        0.72470
H         -3.43450       -0.36740       -1.72360
H         -3.75520        1.29370       -1.16890
H         -2.28480        1.24410       -3.19700
H         -1.48610        1.99710       -1.79620
H          0.00430       -1.56570       -1.58980
