16
gdb 18916	4.04786	2.34398	2.10213	1.405	65.92	-0.2258	0.0924	0.3182	719.5694	0.131719	-346.548709	-346.542761	-346.541817	-346.578378	24.606
C         -0.06010        1.51950        0.02030
C          0.03350        0.02530        0.02060
C          0.00590       -0.88340       -1.19490
O          0.99440       -1.87410       -1.15160
C          1.07120       -2.10940        0.22580
C         -0.27180       -1.93680        0.91140
C          0.80100       -0.85690        1.03440
C         -1.03530       -1.06500       -0.10150
H          0.92490        1.97770       -0.13020
H         -0.71500        1.87040       -0.78430
H         -0.46510        1.90040        0.96490
H         -0.23450       -0.53030       -2.18900
H          1.79320       -2.86090        0.51500
H         -0.68660       -2.61000        1.64810
H          1.37880       -0.52160        1.88490
H         -2.10520       -0.99800       -0.24370
