16
gdb 15202	2.43105	1.92467	1.47286	0.8815	77.	-0.2387	0.0299	0.2686	936.3468	0.12757	-309.391649	-309.383012	-309.382068	-309.424451	32.06
C         -0.12770        1.54390       -0.02300
C          0.03360        0.04460        0.03460
C          1.37890       -0.61710       -0.20770
C          2.55500        0.15400       -0.47280
C          3.54860        0.78670       -0.71590
C          0.73860       -0.63200        1.19720
C          1.30400        0.12470        2.27230
C          1.76740        0.74490        3.19270
H          0.74810        2.05370        0.38280
H         -0.26560        1.87570       -1.05710
H         -1.00250        1.85830        0.55520
H         -0.80990       -0.51820       -0.35580
H          1.34890       -1.57710       -0.71510
H          4.42760        1.34540       -0.92120
H          0.34370       -1.60060        1.49040
H          2.18470        1.29250        4.00070
