13
gdb 23712	5.77148	1.50387	1.1942	2.5861	64.34	-0.2114	-0.0232	0.1882	909.9919	0.097355	-402.809032	-402.802666	-402.801722	-402.839351	24.895
N         -0.02550        1.38160        0.15700
C          0.02310       -0.00010        0.05450
N         -1.15340       -0.63510        0.03930
C         -1.15520       -1.96960        0.00340
C          0.00900       -2.71740       -0.02960
F         -0.05170       -4.05480       -0.07220
C          1.23880       -2.07090       -0.02280
C          1.25020       -0.68760        0.02300
H          0.74820        1.88870       -0.24410
H         -0.92870        1.76520       -0.08020
H         -2.12050       -2.46900       -0.00550
H          2.15620       -2.64790       -0.05060
H          2.18700       -0.14120        0.04060
