17
gdb 12128	4.15062	1.67323	1.65637	3.4228	68.4	-0.2136	0.0658	0.2794	882.9623	0.140273	-363.770984	-363.763418	-363.762473	-363.802225	29.457
C         -0.10860        1.54710        0.01740
C          0.07360        0.06330        0.02240
N         -0.80830       -0.87980        0.74720
C          0.65430       -0.86660        1.01820
C          1.37650       -1.66140       -0.13780
C          2.68400       -2.37280       -0.03980
O          0.38020       -2.13030       -1.04900
C          0.77930       -0.75960       -1.12520
H          0.79600        2.05400       -0.33760
H         -0.93510        1.84420       -0.63910
H         -0.32620        1.92080        1.02380
H         -1.24030       -0.34340        1.50200
H          1.05480       -0.67130        2.00530
H          2.58060       -3.29740        0.53950
H          3.05240       -2.63160       -1.03590
H          3.43080       -1.74590        0.45910
H          1.13750       -0.38140       -2.07670
