22
gdb 9401	4.58035	0.75478	0.68451	2.8303	80.19	-0.2441	-0.0173	0.2267	1693.4136	0.197533	-350.228897	-350.218428	-350.217484	-350.265575	36.114
C          0.09410        1.56590        0.05330
C          0.02530        0.03650        0.05710
C         -1.40810       -0.50070       -0.03170
C         -1.46990       -2.03310       -0.02920
C         -2.90120       -2.61830       -0.02040
C         -3.69790       -2.28620       -1.29370
C         -2.80050       -4.12400        0.12300
O         -3.16650       -4.76200        1.07590
H          1.12780        1.91900        0.11950
H         -0.34090        1.98010       -0.86310
H         -0.45710        1.98920        0.90030
H          0.61240       -0.35960       -0.78210
H          0.50070       -0.35050        0.96800
H         -1.99430       -0.11300        0.81280
H         -1.88070       -0.10450       -0.93900
H         -0.92600       -2.42270       -0.90140
H         -0.93680       -2.40510        0.85540
H         -3.43620       -2.25180        0.86300
H         -4.69890       -2.72730       -1.25790
H         -3.81530       -1.20690       -1.41640
H         -3.19130       -2.67180       -2.18620
H         -2.33120       -4.62900       -0.75710
