21
gdb 10768	2.81817	1.62716	1.4842	2.6495	74.42	-0.2341	0.077	0.311	1011.6347	0.187005	-366.230217	-366.220706	-366.219762	-366.264174	35.04
C         -0.00650        1.37120        0.15650
O          0.13450       -0.02610        0.03300
C          0.72240       -0.54260       -1.16800
C         -0.13870       -0.20260       -2.39600
C          2.16470       -0.04440       -1.34680
C          0.73630       -2.05960       -0.97410
C          0.98140       -2.67100        0.35160
N         -0.35860       -2.73530       -0.26980
H          0.95800        1.89560        0.12650
H         -0.66050        1.80000       -0.61450
H         -0.46430        1.54920        1.13290
H         -0.14250        0.87020       -2.60940
H          0.25400       -0.71090       -3.28180
H         -1.16940       -0.53400       -2.24180
H          2.74150       -0.21670       -0.43400
H          2.64960       -0.58540       -2.16530
H          2.20380        1.02120       -1.59220
H          1.08140       -2.59060       -1.85960
H          1.50170       -3.62200        0.42330
H          1.11600       -2.00030        1.19380
H         -0.93170       -2.01410        0.16510
