12
gdb 951	5.84547	2.69484	1.8445	3.3459	58.48	-0.2336	-0.0218	0.2118	635.5898	0.092899	-323.433551	-323.428186	-323.427242	-323.462458	20.718
O          0.09890        1.36320       -0.11950
C          0.06790        0.00690       -0.02390
C          0.00650       -0.72920       -1.21320
N         -0.02840       -2.05770       -1.24770
C         -0.00340       -2.71760       -0.08460
C          0.05720       -2.07680        1.14790
C          0.09370       -0.68650        1.18290
H          0.14030        1.74540        0.76350
H         -0.01400       -0.19730       -2.16120
H         -0.03300       -3.80200       -0.14430
H          0.07560       -2.65240        2.06690
H          0.14120       -0.15090        2.12780
