16
gdb 8697	2.4553	1.74631	1.39207	1.3297	62.29	-0.2514	0.0246	0.2759	954.5765	0.127527	-420.824845	-420.815716	-420.814772	-420.858162	33.624
O          0.07400        1.45430        0.00330
C          0.01250        0.04300       -0.00670
C         -1.43920       -0.50340        0.00090
O         -1.39280       -1.92140       -0.02110
C         -2.20070       -0.03610        1.26640
O         -1.70270       -0.71890        2.41160
C         -2.13290       -0.00830       -1.19040
C         -2.66780        0.47550       -2.15270
H         -0.36340        1.76220       -0.79980
H          0.53570       -0.39950       -0.86440
H          0.51850       -0.30120        0.90190
H         -1.33790       -2.17870        0.91120
H         -2.12310        1.05090        1.36630
H         -3.25240       -0.31680        1.17210
H         -0.92020       -0.25470        2.72550
H         -3.15930        0.87020       -3.00810
