20
gdb 10182	3.01161	1.12078	0.85514	4.5724	76.63	-0.2435	0.0307	0.2743	1380.3957	0.176185	-345.193135	-345.18325	-345.182306	-345.228356	34.466
C          0.05820        1.68970       -0.04040
C         -0.01510        0.16060        0.01470
C          0.60380       -0.49390       -1.22650
C          0.65070       -2.03510       -1.16150
N         -0.68740       -2.61560       -1.22590
C         -0.72960       -4.05180       -0.96710
C          1.45910       -2.55180       -2.28260
N          2.11290       -2.94800       -3.14890
H          1.09640        2.03280       -0.10380
H         -0.47350        2.07920       -0.91500
H         -0.38940        2.13960        0.85070
H          0.50290       -0.20130        0.91280
H         -1.06580       -0.13750        0.12250
H          0.05080       -0.20540       -2.12710
H          1.62950       -0.12950       -1.35000
H          1.19230       -2.32460       -0.23850
H         -1.27470       -2.13160       -0.55740
H         -0.20370       -4.58330       -1.76600
H         -0.27300       -4.34810       -0.00630
H         -1.77050       -4.38520       -0.97190
