15
gdb 3391	5.58865	1.95061	1.85729	2.032	56.23	-0.2407	0.0659	0.3067	726.0892	0.125458	-345.594203	-345.587602	-345.586658	-345.625074	24.295
O          0.10020        1.30480        0.32130
C          0.05180       -0.00990       -0.21550
C         -1.33660       -0.60090       -0.12850
C         -1.66760       -2.08490       -0.13150
C         -0.67520       -2.85860        0.73270
O         -0.85150       -1.93240        1.83970
C         -1.87840       -1.24790        1.11200
H         -0.11170        1.23460        1.25810
H          0.35450        0.08550       -1.26350
H          0.77750       -0.66590        0.28140
H         -2.09290       -0.01950       -0.65270
H         -2.38240       -2.52540       -0.81310
H         -1.04010       -3.85350        1.01130
H          0.36770       -2.92890        0.40400
H         -2.76640       -0.94610        1.65600
