18
gdb 10962	5.58587	1.29425	1.18203	2.7077	68.92	-0.2439	0.0817	0.3256	1069.0225	0.151746	-384.894283	-384.885999	-384.885055	-384.926937	30.347
C          0.02360        1.30930       -0.16330
O         -0.02290       -0.00100        0.35460
C         -1.25980       -0.62220        0.17610
C         -1.67210       -1.16150       -1.25050
C         -1.81250       -2.55330       -0.60640
C         -2.73920       -3.66410       -0.97740
O         -0.50540       -2.87890       -0.11770
C         -1.34040       -2.05290        0.70270
H          1.01890        1.70670        0.04830
H         -0.14100        1.32820       -1.25110
H         -0.72820        1.96140        0.30970
H         -2.07360       -0.00760        0.59440
H         -2.60370       -0.72880       -1.62260
H         -0.89530       -1.10730       -2.01640
H         -2.46640       -4.08720       -1.95090
H         -2.69370       -4.46420       -0.23390
H         -3.77080       -3.30390       -1.04620
H         -1.53170       -2.39250        1.71470
