15
gdb 5549	3.19603	1.98222	1.31129	2.9229	63.89	-0.1815	0.0491	0.2306	912.0863	0.118726	-399.80946	-399.801454	-399.800509	-399.841959	29.062
C          0.26080        1.01530       -0.33600
O         -0.26510        0.19780        0.71570
C         -1.34170       -0.55450        0.36260
C         -1.39510       -1.87270       -0.02570
O         -0.34000       -2.72450       -0.19080
C         -2.76090       -2.20460       -0.23680
C         -3.49890       -1.07370        0.03290
N         -2.63560       -0.06840        0.38810
H          1.14100        1.51940        0.06900
H          0.54660        0.40670       -1.20180
H         -0.47100        1.76620       -0.65830
H          0.43860       -2.29190        0.17750
H         -3.14180       -3.16260       -0.55270
H         -4.56300       -0.90700        0.00370
H         -2.89350        0.83590        0.74150
