21
gdb 15197	8.76912	0.63131	0.6165	1.0683	76.43	-0.2307	0.0803	0.311	1814.2462	0.187789	-366.224596	-366.215047	-366.214103	-366.259891	33.605
O         -0.01570        1.39930        0.07610
C          0.00960       -0.01800        0.16000
C         -1.40500       -0.52940       -0.07740
C         -1.50620       -2.05480       -0.00110
C         -2.92500       -2.56570       -0.25130
N         -2.97380       -4.02310       -0.19560
C         -3.23240       -4.60910        1.11580
C         -4.28030       -4.61710        0.05800
H          0.87830        1.72460        0.21540
H          0.69130       -0.45010       -0.59100
H          0.36420       -0.35220        1.14930
H         -2.06840       -0.06540        0.66320
H         -1.74030       -0.17440       -1.06000
H         -0.83560       -2.51910       -0.73430
H         -1.17150       -2.40150        0.98580
H         -3.62140       -2.10290        0.47390
H         -3.25880       -2.25890       -1.25070
H         -2.67670       -5.51180        1.35310
H         -3.38340       -3.93220        1.95610
H         -5.12850       -3.94780        0.19620
H         -4.50380       -5.52560       -0.49420
