18
gdb 7844	4.35648	1.11103	0.96122	2.2227	68.5	-0.2384	-0.0044	0.234	1223.6191	0.150896	-384.9425	-384.933294	-384.93235	-384.977917	32.425
C         -0.13170        1.45750        0.19520
C          0.02580       -0.05350        0.15080
O          1.07530       -0.59360        0.41480
C         -1.21500       -0.84010       -0.25860
C         -1.05070       -2.33450       -0.12950
C         -1.37660       -3.02730        1.17870
C         -2.25620       -3.22230       -0.03150
O         -3.50690       -2.59270       -0.08260
H          0.83610        1.92730        0.37450
H         -0.56380        1.83380       -0.73840
H         -0.82430        1.73530        0.99850
H         -2.07850       -0.48890        0.31670
H         -1.44370       -0.56210       -1.29880
H         -0.20400       -2.73530       -0.67650
H         -0.74540       -3.84250        1.51430
H         -1.78080       -2.40850        1.97380
H         -2.21380       -4.18430       -0.54220
H         -4.09240       -3.05020        0.52950
