18
gdb 8098	2.7677	1.97641	1.46181	3.5303	73.15	-0.2354	-0.0053	0.2301	934.103	0.152734	-347.806692	-347.798697	-347.797752	-347.838669	30.477
C         -0.00640        1.58250        0.03610
C          0.08210        0.07120        0.11330
C          1.32840       -0.74370       -0.24040
C          2.55340       -0.10180        0.32710
O          3.65750        0.09360       -0.09990
C          1.95220       -0.01760        1.75390
C          0.70620       -0.73570        1.20020
C          0.01490       -1.86350        1.91050
H          0.89260        2.07680        0.41090
H         -0.14780        1.90270       -1.00120
H         -0.85920        1.95000        0.61760
H         -0.80180       -0.42020       -0.29300
H          1.30450       -1.49540       -1.02120
H          2.53960       -0.64570        2.43150
H          1.82060        0.96690        2.21090
H         -0.54050       -1.49610        2.78180
H         -0.69980       -2.36820        1.25270
H          0.73310       -2.60970        2.26790
