18
gdb 16436	3.38695	2.28548	1.72852	1.1188	72.02	-0.2118	0.0752	0.2871	821.8357	0.153681	-343.867575	-343.860354	-343.85941	-343.898427	28.54
C          0.05840        1.52820       -0.16120
N          0.04160        0.07310       -0.04100
C         -1.10830       -0.49390        0.72100
C         -0.26540       -1.72000        1.18110
N         -0.56480       -1.58830        2.64280
C         -0.53580       -0.17230        2.15250
C          0.68360       -0.48340        1.19640
C          2.14980       -0.43160        1.49360
H          1.05090        1.85530       -0.48780
H         -0.65930        1.83370       -0.92980
H         -0.18990        2.06610        0.77020
H         -2.14090       -0.46240        0.36530
H         -0.11510       -2.67010        0.66830
H         -1.52920       -1.87470        2.83100
H         -0.71200        0.67630        2.81460
H          2.35280       -0.96800        2.42520
H          2.72380       -0.89800        0.68660
H          2.49790        0.60040        1.60860
