17
gdb 10269	2.99913	1.45051	1.24578	5.9683	66.87	-0.2484	-0.0344	0.214	1047.9436	0.139789	-401.042569	-401.033519	-401.032575	-401.076441	31.545
C         -0.00850        1.54810       -0.01810
C         -0.03890        0.01660        0.06210
C          0.76880       -0.53240        1.24480
N         -1.42300       -0.51200        0.04310
C         -1.81550       -1.31500       -1.03860
O         -2.88940       -1.81880       -1.20770
C         -2.28630       -0.19380        1.09880
O         -3.42720       -0.54550        1.22100
H          1.02340        1.89420       -0.12880
H         -0.58520        1.90510       -0.87570
H         -0.41710        2.01180        0.88500
H          0.41750       -0.36970       -0.85530
H          0.39400       -0.15910        2.20280
H          0.73370       -1.62500        1.26730
H          1.81450       -0.22320        1.15640
H         -0.97410       -1.43380       -1.75200
H         -1.77880        0.44810        1.84300
