16
gdb 1476	3.96202	1.80224	1.32496	4.4834	61.49	-0.2684	0.0366	0.305	908.6332	0.134922	-325.787515	-325.779097	-325.778153	-325.820648	28.7
C         -0.00800        1.41360       -0.04790
O         -0.01060        0.00750        0.07260
C         -1.29200       -0.59080        0.03160
C         -1.80320       -0.76550       -1.40020
C         -1.14210       -1.95280        0.73360
C         -0.79490       -1.81820        2.14630
N         -0.54160       -1.71050        3.26820
H          1.02780        1.73990        0.06880
H         -0.37280        1.75350       -1.02790
H         -0.61930        1.88570        0.73550
H         -2.00560        0.02220        0.60480
H         -2.79710       -1.22400       -1.40770
H         -1.87980        0.20020       -1.90660
H         -1.11970       -1.39890       -1.97440
H         -2.07290       -2.52320        0.65000
H         -0.35710       -2.52420        0.22600
