11
gdb 21978	5.51228	1.65607	1.27348	4.5677	56.21	-0.2858	-0.0781	0.2078	842.8877	0.074365	-430.654601	-430.64858	-430.647636	-430.685269	21.531
O         -0.05550       -0.00880        0.00340
N         -0.01360        1.21680        0.00690
O          1.01060        1.89450        0.00250
C         -1.26410        1.91320        0.01670
C         -1.42910        3.28510        0.02190
N         -2.76020        3.47000        0.03080
N         -3.47490        2.31810        0.03170
C         -2.56200        1.35910        0.02320
H         -0.70990        4.08640        0.01990
H         -3.25680        4.34610        0.03650
H         -2.83990        0.31770        0.02170
