20
gdb 10924	3.15058	1.89194	1.47428	1.7728	74.6	-0.2424	0.0883	0.3307	955.8703	0.175284	-348.984158	-348.975483	-348.974539	-349.016636	32.802
C         -0.39240        1.56450        0.30620
C         -0.15220        0.06390        0.21330
C          0.30550       -0.48910       -1.14460
O          1.59690        0.07830       -1.42100
C          1.52500       -1.08180       -0.57130
C          2.34130       -2.27630       -0.94510
C          1.16600       -0.56530        0.83890
C          2.18270        0.33290        1.53090
H          0.43580        2.11860       -0.14230
H         -1.31100        1.84310       -0.22240
H         -0.49980        1.88850        1.34670
H         -1.02670       -0.48600        0.57680
H         -0.29100       -0.78650       -2.00140
H          2.27590       -2.46340       -2.02030
H          3.39670       -2.12410       -0.69130
H          1.99380       -3.16680       -0.41080
H          0.89350       -1.40220        1.49120
H          2.53620        1.11500        0.85420
H          1.75280        0.81350        2.41600
H          3.05200       -0.24630        1.86190
