15
gdb 18776	4.19961	2.42093	2.1187	0.3206	62.39	-0.2429	0.0606	0.3035	694.6136	0.119801	-362.567109	-362.56128	-362.560336	-362.596749	23.536
C         -0.04150        1.43870       -0.00970
C          0.06370       -0.04860        0.08030
C          0.98520       -0.93130       -0.68880
C          1.00620       -2.15760        0.25620
O          1.03200       -1.66040        1.61440
C         -0.21180       -1.00410        1.27850
C         -0.53820       -2.03270        0.16730
N         -0.49700       -0.98840       -0.95530
H          0.69480        1.91920        0.64380
H          0.13900        1.77410       -1.03530
H         -1.03790        1.78460        0.28500
H          1.69600       -0.59520       -1.43310
H          1.63660       -3.02490        0.07400
H         -0.81460       -0.69920        2.13170
H         -1.28080       -2.82690        0.17940
