15
gdb 21157	3.47241	1.84091	1.22363	4.353	65.32	-0.2116	-0.0274	0.1842	959.9523	0.118145	-395.957225	-395.949108	-395.948164	-395.990463	28.117
C         -0.03080        1.48170        0.13790
N         -0.10520        0.02730        0.04340
C          0.59380       -0.71330        0.98740
C          0.73360       -2.06800        1.12080
C          0.24680       -3.22720        0.33210
O          1.47420       -2.28430        2.22080
N          1.76990       -1.02950        2.78450
N          1.25650       -0.13770        2.04490
H          0.99030        1.87790        0.04580
H         -0.65290        1.91060       -0.65100
H         -0.42560        1.80410        1.10410
H          0.03720       -0.30930       -0.89820
H          1.03810       -3.66530       -0.28760
H         -0.12980       -4.01430        0.99200
H         -0.56720       -2.91070       -0.32560
