20
gdb 9770	3.15395	1.64433	1.51532	1.1766	70.36	-0.2501	0.0822	0.3323	972.7256	0.176582	-386.150673	-386.14204	-386.141096	-386.183897	31.83
C          0.06780        1.56860       -0.08380
C          0.00310        0.04480        0.04440
C          0.68390       -0.52280        1.30480
C         -0.01090       -0.11190        2.60080
C          0.86870       -2.05280        1.18220
O          2.13470       -2.18670        0.55530
C          2.90640       -1.16300        1.12870
O          2.05290       -0.05690        1.33630
H          1.10310        1.91180       -0.01400
H         -0.33650        1.89120       -1.04800
H         -0.50980        2.07200        0.69780
H         -1.04190       -0.29180        0.03260
H          0.49260       -0.41390       -0.82280
H         -1.04100       -0.48430        2.62260
H          0.52170       -0.51790        3.46550
H         -0.03990        0.97540        2.70290
H          0.86930       -2.53180        2.17410
H          0.11870       -2.53400        0.55130
H          3.33650       -1.49050        2.09340
H          3.71010       -0.89590        0.43440
