16
gdb 3344	4.12732	3.17761	2.14759	2.616	60.01	-0.2407	0.0718	0.3125	644.3665	0.139997	-325.751822	-325.745995	-325.74505	-325.781272	22.899
C          0.00030        1.37230        0.05750
C          1.42350        1.93580       -0.03070
C          2.20180        1.26770       -1.15680
N          2.80360       -0.04110       -0.83080
C          1.67030        0.01470       -1.76220
C          0.35440       -0.54230       -1.25670
O         -0.00770       -0.04340        0.01500
H         -0.47700        1.65480        1.00010
H         -0.61440        1.77510       -0.76640
H          1.37300        3.01820       -0.19420
H          1.94900        1.76650        0.91440
H          2.77660        1.92770       -1.80200
H          3.67080       -0.16410       -1.34670
H          1.85950       -0.16590       -2.81920
H         -0.43110       -0.30610       -1.99720
H          0.40890       -1.63110       -1.15390
