13
gdb 3627	5.558	3.72372	3.55655	1.7358	54.71	-0.2443	0.0837	0.328	474.7499	0.103786	-307.226474	-307.22218	-307.221236	-307.25417	18.311
O         -0.05530        1.49330        0.12910
C          1.37880        1.48400       -0.04320
C          1.99100        0.61090        1.08920
C          0.93910       -0.49830        1.09450
C          2.15360       -0.60090        0.20010
C          1.33840        0.16710       -0.88550
C          0.02950        0.06100       -0.03650
H          1.80850        2.44490       -0.32070
H          2.54390        0.90470        1.97040
H          0.67930       -1.06170        1.97970
H          2.93590       -1.34290        0.14640
H          1.39810        0.10530       -1.96880
H         -0.90850       -0.42050       -0.30720
