12
gdb 21559	4.21403	1.91615	1.31799	4.1494	64.11	-0.2294	-0.0827	0.1467	844.6054	0.083857	-410.801075	-410.794274	-410.79333	-410.831947	25.661
N          0.05930        1.37410       -0.12460
C         -0.08830        0.01930       -0.04900
C         -1.24400       -0.68030       -0.02320
C         -1.19660       -2.11620       -0.00390
N         -2.21210       -2.87550        0.01630
O          0.09250       -2.66540       -0.00650
N          1.26020       -1.86850       -0.01520
N          1.16000       -0.63980       -0.03860
H          0.96870        1.73410        0.11770
H         -0.72810        1.95620        0.10770
H         -2.21900       -0.21070       -0.02070
H         -1.93450       -3.85700        0.02890
