16
gdb 10549	2.67468	1.84721	1.31135	3.7373	65.64	-0.2763	0.012	0.2883	958.9734	0.130028	-379.887173	-379.878753	-379.877809	-379.920812	29.394
C          0.05390        0.72070        0.38210
O          0.97940        0.45920       -0.66100
C          0.53620       -0.47970       -1.61120
C          0.52820       -1.91900       -1.07440
C          1.50510       -2.90300       -1.64420
N          1.71150       -2.35810       -0.30760
C         -0.74140       -2.40480       -0.57560
N         -1.77720       -2.76840       -0.21190
H         -0.91710        1.04450       -0.01940
H         -0.10660       -0.15620        1.02220
H          0.47870        1.52630        0.98450
H         -0.46260       -0.22260       -1.99290
H          1.24780       -0.41390       -2.43950
H          1.24190       -3.95580       -1.67310
H          2.12020       -2.55650       -2.47080
H          2.38000       -1.58910       -0.31290
