16
gdb 15822	3.86375	1.1335	0.94142	1.2842	61.64	-0.2527	-0.0286	0.2241	1202.8026	0.128035	-420.85882	-420.850115	-420.849171	-420.89312	29.888
O          0.14190        0.62630        1.28120
C         -0.02200       -0.04120        0.03910
C         -1.26530       -0.90940        0.16010
C         -1.55830       -1.69100       -1.10220
O         -0.91390       -1.57090       -2.12170
C         -2.72430       -2.64440       -1.07870
C         -2.84160       -3.69080       -0.04120
O         -3.66270       -2.53400       -0.00720
H          0.91140        1.19870        1.21240
H         -0.14650        0.66620       -0.79260
H          0.84690       -0.67040       -0.20320
H         -1.16470       -1.59240        1.01270
H         -2.14260       -0.29460        0.39690
H         -3.14470       -2.84560       -2.06270
H         -3.34320       -4.62220       -0.29820
H         -2.09170       -3.76250        0.74440
