12
gdb 9453	2.95465	1.80699	1.70263	3.869	55.05	-0.2742	-0.0355	0.2388	812.7986	0.08393	-414.6742	-414.666794	-414.66585	-414.706065	25.941
N          0.05910        1.50730        0.13910
C          0.01120        0.06410        0.03230
C         -1.40370       -0.55580       -0.13600
O         -1.01980       -1.13440       -1.42060
C          0.23920       -0.60380       -1.37420
O          1.09370       -0.63770       -2.19290
C          0.81840       -0.55330        1.08080
N          1.46400       -1.05600        1.89610
H          1.02130        1.82640        0.19740
H         -0.35190        1.93520       -0.68570
H         -1.68760       -1.32860        0.57780
H         -2.19450        0.18650       -0.25650
