16
gdb 16653	2.82733	2.34143	1.71039	2.0587	64.25	-0.2338	-0.0221	0.2117	805.4237	0.131816	-383.754433	-383.747497	-383.746552	-383.785475	26.917
O          0.17230        1.33820        0.20220
C         -0.04530       -0.06380        0.04040
C         -1.54460       -0.34200       -0.13760
C         -1.77840       -0.48030       -1.64370
C         -1.28360        0.63430       -2.49990
C         -0.42830       -0.62650       -2.33310
C          0.61870       -0.53410       -1.28090
O          1.79740       -0.77590       -1.39030
H          1.12610        1.48090        0.17840
H          0.38690       -0.61940        0.88240
H         -1.80380       -1.28020        0.36300
H         -2.14220        0.45510        0.31400
H         -2.62240       -1.06940       -1.98320
H         -1.72450        0.75880       -3.48260
H         -0.94670        1.54820       -2.02510
H         -0.24830       -1.25300       -3.19710
