18
gdb 3594	5.18518	1.86624	1.57487	1.0499	69.29	-0.2313	0.0887	0.32	846.0297	0.159881	-289.795079	-289.787705	-289.786761	-289.826508	27.571
C         -0.06040        1.54660       -0.02080
C          0.00870        0.03620        0.01360
C          1.32630       -0.67940       -0.19030
C          0.66180       -0.69580        1.16230
N          1.27410        0.07440        2.20990
C          0.64870       -0.00020        3.52650
C          1.94830       -0.67880        3.26230
H          0.80800        1.98400        0.47630
H         -0.09150        1.91310       -1.05280
H         -0.95730        1.91410        0.49070
H         -0.86150       -0.46480       -0.40360
H          1.35150       -1.59470       -0.77140
H          2.21270       -0.05990       -0.27750
H          0.19660       -1.63640        1.47350
H          0.61290        0.92890        4.08840
H         -0.22990       -0.63380        3.63720
H          1.93770       -1.76550        3.19540
H          2.87910       -0.25420        3.62760
