13
gdb 5176	5.84303	1.57973	1.24353	0.8095	63.24	-0.2113	-0.0119	0.1994	894.0098	0.098712	-394.851444	-394.845	-394.844055	-394.882226	23.909
O         -0.18580       -0.02900        0.00050
C         -0.04140        1.18030        0.00770
N          1.16060        1.81950        0.00170
C          2.40640        1.19640       -0.01320
N          3.54770        1.84200       -0.01780
C          4.50160        0.84420       -0.03300
C          3.91490       -0.39170       -0.03750
N          2.55370       -0.15150       -0.02450
H         -0.88810        1.88770        0.02020
H          1.19280        2.82810        0.00890
H          5.55400        1.08100       -0.03990
H          4.31350       -1.39170       -0.04840
H          1.77130       -0.79030       -0.02220
