20
gdb 14836	2.8119	1.5824	1.12158	0.6725	80.98	-0.2528	0.0492	0.3021	1119.7943	0.176102	-311.832411	-311.8236	-311.822656	-311.865704	33.037
C          0.12990        1.52320        0.17560
C          0.27740       -0.00110        0.14210
C          0.59550       -0.53230       -1.25420
C          2.06970       -0.32290       -1.71430
C          2.37970       -1.79880       -1.35580
C          0.84430       -2.08680       -1.34450
C          0.30110       -2.96400       -0.32860
C         -0.14100       -3.68540        0.52740
H          1.04490        2.02520       -0.15740
H         -0.68420        1.85480       -0.47870
H         -0.09110        1.87660        1.18740
H          1.06080       -0.31310        0.84480
H         -0.64690       -0.47090        0.49810
H         -0.16410       -0.17310       -1.95630
H          2.14900       -0.12980       -2.78750
H          2.64150        0.44320       -1.18490
H          2.97930       -2.38160       -2.05800
H          2.80990       -1.90490       -0.35770
H          0.53190       -2.44010       -2.33320
H         -0.53190       -4.32650        1.27780
