18
gdb 8488	2.92164	1.98265	1.51072	1.963	68.49	-0.2231	0.0742	0.2973	918.4079	0.151345	-384.904936	-384.89647	-384.895526	-384.937146	32.061
C         -0.08790        1.53740       -0.05170
C          0.10850        0.03850        0.03050
O          1.20550       -0.45890       -0.79850
C          1.73680       -1.21320        0.30320
C          2.26600       -2.58110        0.02980
C          2.19590       -0.25740        1.38000
C          0.72990       -0.62930        1.25990
O          0.00720       -1.24490        2.26330
H          0.80630        2.07840        0.26980
H         -0.31540        1.83560       -1.08000
H         -0.92890        1.84180        0.58120
H         -0.81400       -0.48990       -0.24550
H          3.17270       -2.53180       -0.58340
H          2.51600       -3.08590        0.96710
H          1.52500       -3.18350       -0.50450
H          2.68680       -0.73460        2.22360
H          2.56800        0.72970        1.12000
H         -0.01660       -0.65740        3.02660
