14
gdb 9060	5.19086	0.90016	0.80039	2.5292	62.89	-0.3203	-0.0074	0.3129	1312.9358	0.106337	-378.743142	-378.734626	-378.733682	-378.776918	29.143
O         -0.06320        1.42620       -0.00880
C          0.02550        0.01350        0.00830
C          0.68990       -0.56020       -1.25680
C         -0.07120       -0.11410       -2.51930
C          0.57590       -0.57500       -3.74410
N          1.10120       -0.94570       -4.70390
C          0.72350       -0.46720        1.21680
N          1.29960       -0.82330        2.15280
H          0.82320        1.79170        0.09910
H         -1.01230       -0.33680        0.06100
H          1.72960       -0.21940       -1.30550
H          0.71450       -1.65210       -1.19080
H         -1.09820       -0.49780       -2.49970
H         -0.14320        0.97770       -2.53860
