16
gdb 20198	3.90486	2.69708	2.01612	0.6229	74.84	-0.1902	-0.0149	0.1752	704.6801	0.132846	-309.401974	-309.396322	-309.395378	-309.431222	23.983
C          0.00650        1.57620        0.10710
C          1.48880        1.89540       -0.06030
C          2.16430        0.79720       -0.44520
C          3.14710        0.15660        0.49530
C          2.41580       -0.79160        1.10700
C          1.08770       -1.01360        0.40830
C         -0.00150        0.05710       -0.10140
C          1.20090       -0.29930       -0.89580
H         -0.29720        1.88950        1.11510
H         -0.69150        2.06700       -0.58980
H          1.94400        2.71370        0.48940
H          4.11040        0.54220        0.80020
H          2.72730       -1.37250        1.96750
H          0.65870       -2.01040        0.45520
H         -0.95580       -0.42340       -0.30290
H          1.24540       -0.75750       -1.87960
