20
gdb 14876	3.78457	1.2286	1.01098	2.1622	71.38	-0.2401	0.0698	0.3099	1203.5427	0.17621	-386.117795	-386.108622	-386.107678	-386.152169	32.551
C         -0.08020        1.62570       -0.16330
C         -0.05170        0.19320        0.38090
C         -1.31510       -0.56960        0.01670
O         -1.47650       -0.73300       -1.41430
C         -1.81030       -2.12920       -1.25910
C         -1.43490       -2.10250        0.23560
C         -0.17560       -2.87120        0.59140
O         -0.50820       -4.25190        0.52950
H          0.84520        2.15840        0.07480
H         -0.20150        1.61710       -1.25000
H         -0.91420        2.19400        0.26310
H          0.82330       -0.33240       -0.01710
H          0.04720        0.20530        1.47440
H         -2.18520       -0.03640        0.43270
H         -2.87060       -2.32130       -1.46720
H         -1.19890       -2.77610       -1.89860
H         -2.23290       -2.40480        0.91760
H          0.63090       -2.62830       -0.11740
H          0.17170       -2.58790        1.59790
H          0.29160       -4.76250        0.68590
