11
gdb 576	12.33614	2.01791	1.85819	4.8091	46.97	-0.2893	0.0256	0.3149	629.6714	0.084551	-285.2779	-285.272042	-285.271098	-285.307635	19.788
N          0.01470       -1.07440        0.41180
C         -0.00020        0.05370        0.16400
C         -0.00730        1.47890       -0.16760
C          1.39080        2.07460       -0.20430
C          1.61000        3.49010        0.11150
O          1.94460        2.45990        1.04540
H         -0.48950        1.60590       -1.14440
H         -0.61100        2.01520        0.57170
H          2.08710        1.57210       -0.87540
H          2.45320        4.01660       -0.33120
H          0.76330        4.11590        0.39050
