15
gdb 10664	2.75796	2.10224	1.33225	2.2976	68.49	-0.2533	-0.0308	0.2225	913.1403	0.116439	-362.622505	-362.614223	-362.613278	-362.655191	30.161
C          0.76080        1.12030        0.27030
C         -0.27940        0.09420       -0.10150
O         -1.29350       -0.07920        0.54040
C         -0.03050       -0.75610       -1.33570
C         -0.25480       -2.23560       -1.10280
N         -1.22190       -1.46670       -1.85810
C          0.94710       -0.31700       -2.29350
C          1.78020        0.05550       -3.07620
H          1.75100        0.65770        0.33410
H          0.82590        1.88050       -0.51540
H          0.49410        1.58540        1.21940
H          0.34710       -2.93100       -1.67960
H         -0.49540       -2.53270       -0.08570
H         -1.98800       -1.21120       -1.23140
H          2.50690        0.38160       -3.77870
