13
gdb 305	9.20563	2.65868	2.33419	2.8604	51.41	-0.2598	0.0305	0.2903	567.9978	0.108342	-286.498235	-286.492393	-286.491449	-286.527464	21.198
C         -0.40670        1.51260        0.01650
C          0.08730        0.08410       -0.00700
C          0.88890       -0.40060       -1.23640
C          2.02230       -0.54800       -0.24400
N          3.21260       -0.93580       -0.31120
O          1.28400       -0.09940        0.83150
H          0.37730        2.20120       -0.31300
H         -1.26950        1.62330       -0.64890
H         -0.71530        1.79780        1.02650
H         -0.68790       -0.61400        0.32350
H          0.55770       -1.33240       -1.69710
H          1.05720        0.35000       -2.01130
H          3.66590       -0.89450        0.60330
