14
gdb 12652	3.39266	1.99526	1.31083	5.1636	58.01	-0.2541	-0.0831	0.1711	886.3536	0.106906	-419.729654	-419.722291	-419.721347	-419.76168	26.188
C         -0.21810        1.55660       -0.01500
C          0.09350        0.06280        0.00460
C          0.91760       -0.48160       -1.17380
O          1.72720       -1.56760       -0.66350
C          1.83700       -1.52470        0.68550
O          2.52270       -2.26070        1.32730
C          0.91780       -0.39090        1.19570
O          0.89890        0.02010        2.32120
H          0.69910        2.14670       -0.10680
H         -0.87580        1.81360       -0.85000
H         -0.70970        1.84520        0.91720
H         -0.84360       -0.51040        0.06560
H          0.31340       -0.88440       -1.98820
H          1.58950        0.28310       -1.57930
