17
gdb 11309	5.54694	1.23094	1.04877	3.8841	66.04	-0.2394	0.0258	0.2653	1082.2105	0.143298	-401.031245	-401.023318	-401.022374	-401.064133	28.55
O          0.05170        1.36880        0.20650
C          0.05030       -0.02070       -0.04060
C         -1.38960       -0.54570       -0.08370
C         -1.28830       -1.86170       -0.86990
N         -0.07650       -1.68840       -1.68380
C          0.58810       -0.41790       -1.43130
C          0.38960       -2.67960       -2.48030
O         -0.16220       -3.75050       -2.63870
H          0.95700        1.65160        0.36800
H          0.61830       -0.56080        0.73210
H         -1.82320       -0.67620        0.90930
H         -1.99690        0.18880       -0.62290
H         -1.17030       -2.73490       -0.21860
H         -2.15900       -2.05150       -1.50400
H          0.29500        0.36020       -2.15080
H          1.67660       -0.52710       -1.46500
H          1.34260       -2.40750       -2.97810
