18
gdb 14239	3.31791	1.84605	1.82903	1.0127	67.46	-0.2432	0.0684	0.3116	857.0535	0.153246	-384.907969	-384.900396	-384.899452	-384.939606	28.837
C          0.43690        1.51960       -0.06180
C          0.12150        0.04870        0.08000
O          0.87410       -0.80850       -0.83760
C          1.28970       -1.67690        0.23090
C          2.64510       -1.28800        0.85490
C          3.73100       -0.70060       -0.01620
O          1.97770       -0.30570        1.71090
C          0.67500       -0.74040        1.28360
H          1.47360        1.71790        0.21700
H          0.27390        1.84020       -1.09520
H         -0.21930        2.11110        0.58580
H         -0.95340       -0.13980       -0.05730
H          1.05750       -2.72770        0.04870
H          3.03930       -2.09940        1.48420
H          3.30650        0.00040       -0.73750
H          4.46730       -0.17900        0.60280
H          4.24840       -1.49600       -0.56350
H          0.01380       -1.00190        2.11170
