10
gdb 2815	4.19866	2.33606	1.63979	6.6794	52.54	-0.3126	-0.0258	0.2868	696.8575	0.067524	-318.340705	-318.33449	-318.333546	-318.371098	21.41
N         -0.17690       -1.15990       -0.00820
C         -0.07640       -0.00960        0.01810
C          0.01580        1.43070        0.00920
N          0.53140        2.07510        1.22080
C          1.34050        2.14730        0.00040
C          2.59650        1.43640        0.00060
N          3.61390        0.89070       -0.03320
H         -0.78150        1.91800       -0.54640
H          0.05490        2.95790        1.38690
H          1.36310        3.07820       -0.56060
