18
gdb 8924	2.3883	1.77012	1.27308	4.2213	68.36	-0.2542	0.0238	0.278	1028.5329	0.152286	-381.116746	-381.107058	-381.106114	-381.151442	33.743
C         -0.45990        1.15100       -0.00550
O          0.40320        0.03120        0.12010
C          0.80530       -0.57490       -1.09820
C          2.30620       -0.83980       -1.02440
C          0.00080       -1.89940       -1.29860
N          0.00630       -2.79930       -0.14700
C         -1.39450       -1.58610       -1.65910
N         -2.47640       -1.30850       -1.95590
H          0.01340        1.95440       -0.58820
H         -1.41570        0.88870       -0.47320
H         -0.64710        1.51600        1.00710
H          0.59340        0.09260       -1.94520
H          2.54310       -1.48420       -0.17280
H          2.66980       -1.31750       -1.93970
H          2.84160        0.10270       -0.88780
H          0.43060       -2.43450       -2.15450
H          0.92690       -3.21330       -0.04470
H         -0.16570       -2.24320        0.68730
