13
gdb 12613	3.15017	2.2168	1.36121	3.0033	55.75	-0.2596	-0.0482	0.2114	835.2307	0.094993	-435.755155	-435.748044	-435.7471	-435.786749	25.854
O          0.32520        1.26500       -0.41700
C          0.00830       -0.03430       -0.04250
C          0.61300       -0.48100        1.26920
N          1.70320       -0.02740        1.70480
O         -0.19530       -1.39210        1.88080
C         -1.49270       -1.42740        1.25940
C         -1.47560       -0.32760        0.18940
O         -2.43090        0.17070       -0.33050
H          1.13150        1.48790        0.07210
H          0.32150       -0.77330       -0.80960
H          1.94400       -0.39950        2.62340
H         -1.66490       -2.41400        0.81450
H         -2.26310       -1.23740        2.01130
