16
gdb 6687	5.46603	0.74248	0.72795	1.7169	75.14	-0.2568	0.0272	0.2839	1569.6125	0.12694	-346.535585	-346.525959	-346.525015	-346.572427	33.387
C          0.33750        1.38520        0.30150
C         -0.24330        0.00700       -0.04580
O         -1.66610        0.04500       -0.13490
C          0.36440       -0.54380       -1.26280
C          0.84630       -0.96720       -2.28120
C          1.43150       -1.49440       -3.51600
C          2.11520       -2.77710       -3.33960
C          2.68050       -3.82770       -3.20750
H          1.41750        1.32350        0.46360
H          0.15590        2.09360       -0.51330
H         -0.14060        1.76260        1.20920
H         -0.04220       -0.67830        0.78660
H         -1.89090        0.52230       -0.94130
H          0.64270       -1.60610       -4.27290
H          2.13730       -0.76220       -3.93220
H          3.17760       -4.75800       -3.08490
