21
gdb 9345	5.56659	0.79667	0.77341	3.3604	77.04	-0.2401	0.0376	0.2777	1592.9774	0.187334	-366.312176	-366.301848	-366.300904	-366.349604	35.457
C         -0.05500        1.40770       -0.36560
C         -0.29870       -0.10330       -0.38080
C         -1.27090       -0.54630        0.71940
N         -1.50600       -1.98020        0.73440
C         -2.66840       -2.54820        0.29540
O         -3.60680       -1.89300       -0.12470
C         -2.72150       -4.07210        0.40970
C         -3.61040       -4.69720       -0.66620
H          0.64000        1.70520       -1.15630
H         -0.98880        1.95950       -0.51730
H          0.37000        1.73330        0.59060
H         -0.70590       -0.41180       -1.35050
H          0.65480       -0.63470       -0.25960
H         -0.89390       -0.23070        1.70120
H         -2.24770       -0.07960        0.57110
H         -0.75490       -2.58570        1.02240
H         -1.71010       -4.49500        0.38110
H         -3.12340       -4.30320        1.40520
H         -4.58980       -4.21480       -0.66460
H         -3.17730       -4.56390       -1.66220
H         -3.73970       -5.76890       -0.49130
