20
gdb 6609	4.1411	1.49581	1.3688	1.5157	75.51	-0.2211	0.0851	0.3062	1013.9412	0.175039	-348.986884	-348.978437	-348.977493	-349.019613	32.759
C         -0.50280        1.58760       -0.01140
C         -0.00080        0.15170       -0.06140
C         -1.07430       -0.85470        0.32710
C          0.84290       -0.21930       -1.31310
C          1.98900       -0.35010       -0.32170
C          3.06600       -1.37920       -0.22310
C          3.41070        0.09280       -0.42720
O          1.17650       -0.00460        0.79780
H          0.29710        2.28610       -0.27230
H         -1.33390        1.73350       -0.71020
H         -0.85510        1.83260        0.99580
H         -1.92650       -0.79870       -0.35920
H         -0.67620       -1.87290        0.30430
H         -1.43670       -0.65230        1.34030
H          0.54520       -1.14320       -1.81420
H          0.94810        0.57790       -2.05270
H          3.25520       -1.80120        0.75830
H          3.20870       -2.06750       -1.05030
H          3.78900        0.41040       -1.39390
H          3.82390        0.62750        0.42150
