20
gdb 14165	3.18782	2.17969	1.79508	1.6613	73.6	-0.2424	0.0858	0.3282	849.5337	0.178008	-348.992131	-348.984696	-348.983751	-349.02309	30.167
C         -0.16040        1.60070       -0.00550
C         -0.00890        0.08260        0.00790
C         -1.35040       -0.58650       -0.30180
C          1.18100       -0.60750       -0.73390
C          2.44830        0.12100       -0.24260
C          2.10620        0.10030        1.28390
C          0.75470       -0.63320        1.16850
O          1.09300       -1.70320        0.23070
H          0.76580        2.13620        0.20920
H         -0.51950        1.93840       -0.98440
H         -0.90460        1.91510        0.73530
H         -1.72030       -0.27310       -1.28490
H         -1.25960       -1.67340       -0.29610
H         -2.10620       -0.29640        0.43720
H          1.12210       -0.92600       -1.77610
H          3.34270       -0.45890       -0.47860
H          2.56830        1.12470       -0.65800
H          2.81780       -0.49060        1.86390
H          2.03160        1.09230        1.73640
H          0.25860       -0.97820        2.07730
