22
gdb 6803	6.16852	0.69561	0.65172	1.7693	76.17	-0.2544	0.0765	0.3309	1780.6561	0.197398	-387.338854	-387.328243	-387.327299	-387.375158	36.959
C         -0.11950        1.46440        0.47320
C         -0.32670       -0.04120        0.65360
C         -1.37610       -0.60160       -0.29640
O         -1.50820       -1.98860       -0.06580
C         -2.44970       -2.61380       -0.90690
C         -2.50640       -4.10660       -0.57200
C         -2.93190       -4.36530        0.87000
O         -3.34330       -4.77320       -1.51100
H          0.63970        1.84210        1.16400
H          0.20960        1.70350       -0.54410
H         -1.04460        2.02080        0.66080
H          0.61430       -0.57780        0.48710
H         -0.63470       -0.26260        1.68200
H         -2.34500       -0.09490       -0.14070
H         -1.08350       -0.41520       -1.34450
H         -3.45260       -2.16560       -0.77180
H         -2.17830       -2.49380       -1.96770
H         -1.50640       -4.52440       -0.73530
H         -3.94450       -3.97870        1.04740
H         -2.93180       -5.43760        1.08340
H         -2.25580       -3.85940        1.56340
H         -4.25490       -4.53290       -1.31140
