16
gdb 11519	4.74933	1.04049	0.94214	2.8047	65.68	-0.2573	0.006	0.2633	1209.0373	0.130394	-379.895382	-379.887043	-379.886099	-379.928792	29.621
O         -0.33120        1.30030        0.08030
C          0.03840       -0.05840       -0.06110
C          0.88740       -0.31920       -1.32330
C          0.13860        0.03810       -2.58610
C          0.46370       -0.63310       -3.86660
N         -0.81340       -0.91480       -3.18490
C          0.73900       -0.54870        1.14420
N          1.31770       -0.91020        2.07690
H          0.46740        1.81680        0.24110
H         -0.90800       -0.60410       -0.14610
H          1.81210        0.26820       -1.24440
H          1.18660       -1.37440       -1.34370
H         -0.21540        1.06530       -2.61790
H          0.37360       -0.09220       -4.80400
H          1.23790       -1.39680       -3.85890
H         -0.75180       -1.81410       -2.71120
