15
gdb 16325	3.19412	2.05201	1.432	2.5323	62.42	-0.2613	0.0115	0.2728	858.8784	0.118981	-399.760927	-399.75369	-399.752746	-399.792679	27.034
O          0.07410        1.39660        0.12760
C          0.08710       -0.01420        0.01320
C         -1.31590       -0.55670        0.01930
C         -2.11280       -1.08400        1.21640
C         -1.98270       -1.91620       -0.00870
O         -2.95010       -1.46130       -1.00280
C         -2.29520       -0.23660       -1.05910
N         -2.43000        0.74900       -1.82420
H         -0.47890        1.72900       -0.59250
H          0.60020       -0.33620       -0.90660
H          0.65930       -0.39850        0.86350
H         -1.48800       -1.37550        2.05620
H         -3.07740       -0.66100        1.47920
H         -1.60130       -2.92200       -0.11610
H         -3.17720        0.61420       -2.50620
