15
gdb 15502	3.67824	1.92098	1.29654	6.3959	64.95	-0.2377	-0.0019	0.2358	896.3309	0.121198	-396.014622	-396.007396	-396.006452	-396.046415	26.231
N          0.04670        1.33590        0.11040
C          0.05810        0.06880        0.13330
N          1.13160       -0.81990        0.28200
C          0.74780       -2.16440       -0.13370
C         -0.74610       -2.15620        0.21220
N         -1.09530       -0.74440        0.04230
C         -2.40780       -0.33770       -0.11230
O         -2.81450        0.78780       -0.21620
H          0.99530        1.70300        0.17770
H          2.02910       -0.46810       -0.01520
H          0.89970       -2.33440       -1.20980
H          1.29530       -2.93080        0.42060
H         -1.33820       -2.79410       -0.44710
H         -0.90590       -2.47710        1.24900
H         -3.07330       -1.22660       -0.14200
