20
gdb 17888	3.70902	1.85214	1.66307	1.3956	74.07	-0.2449	0.0895	0.3344	884.742	0.179527	-348.996132	-348.989029	-348.988085	-349.026984	28.494
C         -0.11860        1.50800       -0.00570
C          0.03280       -0.00880        0.01430
C          1.20420       -0.59260       -0.83030
C          2.11430       -0.43760        0.42180
C          0.79740       -0.60600        1.23290
C          0.47670       -2.10370        1.31580
O          0.96240       -2.80930        0.17940
C          0.94250       -2.08830       -1.04740
H          0.82840        2.02320        0.18430
H         -0.49030        1.84970       -0.97820
H         -0.83240        1.83850        0.75720
H         -0.94390       -0.47120       -0.18120
H          1.47570       -0.09550       -1.76600
H          2.89910       -1.18240        0.57170
H          2.53760        0.56370        0.51180
H          0.69230       -0.12130        2.20780
H          0.96810       -2.56670        2.17930
H         -0.61120       -2.24670        1.43040
H         -0.02010       -2.22720       -1.56810
H          1.72600       -2.54180       -1.66560
