18
gdb 17684	4.17377	1.42548	1.27074	2.2574	67.66	-0.2319	0.0648	0.2967	1006.0628	0.152541	-384.899702	-384.891515	-384.89057	-384.932055	31.662
O          0.24230        1.17620       -0.02120
C          0.00510       -0.19000        0.20080
C         -0.89590       -0.61680        1.34120
C         -1.40410       -0.63320       -0.09230
O         -2.28810        0.39030       -0.45360
C         -1.69280       -1.89830       -0.83300
C         -1.28930       -3.25860       -0.32170
C         -2.74200       -2.86000       -0.33120
H          0.64650        1.55130        0.76760
H          0.82880       -0.84460       -0.07780
H         -0.65910       -1.53640        1.86550
H         -1.31090        0.17140        1.96110
H         -1.75220        1.19440       -0.51290
H         -1.65140       -1.76410       -1.91070
H         -0.94600       -3.98440       -1.05030
H         -0.79080       -3.33290        0.63830
H         -3.20460       -2.63260        0.62290
H         -3.40510       -3.32170       -1.05370
