15
gdb 13040	3.95008	1.46294	1.12456	3.8718	67.43	-0.2458	0.0312	0.2769	1018.487	0.117933	-362.647339	-362.639269	-362.638325	-362.680435	28.781
O          0.01970        0.01070       -0.08520
C         -0.00170        1.20970       -0.04940
N         -1.02540        2.12770       -0.02380
C         -0.17490        3.31660        0.04340
C          1.05180        2.35520       -0.00110
C          1.98740        2.37600        1.21560
C          3.03760        1.36770        1.14600
C          3.91290        0.54850        1.07200
H         -2.02780        2.01240       -0.03410
H         -0.27190        3.99270       -0.81180
H         -0.27440        3.88740        0.97360
H          1.62690        2.42520       -0.92700
H          2.44450        3.37130        1.29400
H          1.39760        2.23620        2.13100
H          4.67390       -0.18940        1.01270
