12
gdb 9165	6.85903	0.76098	0.7053	3.7154	64.14	-0.2793	-0.0876	0.1917	1471.3213	0.079822	-418.446501	-418.437577	-418.436632	-418.48169	28.309
O          0.07190        1.38540        0.04060
C         -0.03180        0.00110       -0.12450
C         -1.43400       -0.44680        0.26030
O         -2.31350        0.29520        0.62040
C         -1.64660       -1.88570        0.15460
C         -1.84810       -3.07530        0.06370
C         -2.08730       -4.49860       -0.01070
O         -2.29730       -5.09230       -1.04090
H          0.95380        1.65600       -0.23120
H          0.13830       -0.33060       -1.16390
H          0.67680       -0.56910        0.50230
H         -2.06130       -5.01170        0.97090
