20
gdb 5876	4.19223	0.91679	0.90378	3.1944	72.79	-0.2472	-0.0169	0.2303	1357.1516	0.173126	-386.159601	-386.149668	-386.148724	-386.194555	35.778
C         -0.09550        1.54440       -0.04260
C          0.01850        0.01620        0.03350
C          0.58940       -0.41300        1.38760
O         -1.28780       -0.57080       -0.02560
C          0.87750       -0.50050       -1.14550
C          0.98050       -2.03230       -1.22400
C          1.47560       -2.49160       -2.57330
O          2.42510       -3.20730       -2.76210
H          0.88420        2.02350        0.05020
H         -0.52650        1.85670       -1.00190
H         -0.74020        1.91540        0.75910
H         -0.02100       -0.00370        2.19710
H          0.58740       -1.50120        1.48420
H          1.61560       -0.05390        1.50880
H         -1.74540       -0.19980       -0.78810
H          0.42930       -0.12380       -2.07680
H          1.87910       -0.05810       -1.08850
H          1.63670       -2.44690       -0.45530
H         -0.02890       -2.44200       -1.07810
H          0.87460       -2.10420       -3.43210
