18
gdb 6212	3.78797	1.46266	1.38556	2.6287	69.18	-0.2497	0.0028	0.2525	977.0166	0.152655	-384.948111	-384.939774	-384.938829	-384.980613	31.993
C          0.02990        1.55220       -0.02010
C          0.03750        0.02310        0.01200
O         -1.31640       -0.46570       -0.01920
C          0.75990       -0.63420       -1.18450
C          1.49000       -1.88130       -0.62520
O          2.75900       -2.13230       -1.21540
C          1.54150       -1.60120        0.86060
C          0.78260       -0.56320        1.20130
H          1.04750        1.95580       -0.01720
H         -0.48850        1.91030       -0.91460
H         -0.49140        1.95500        0.85690
H         -1.75070       -0.18350        0.79310
H          0.05380       -0.86460       -1.98430
H          1.51490        0.04930       -1.58720
H          0.91960       -2.79680       -0.82160
H          3.32640       -1.38090       -1.00900
H          2.12590       -2.21930        1.53400
H          0.63860       -0.18450        2.20950
