11
gdb 23730	5.78307	1.60811	1.25823	1.9234	58.5	-0.2339	-0.0838	0.1502	844.8743	0.072406	-438.693486	-438.687441	-438.686497	-438.72391	22.577
F          0.04200        0.04270       -0.29890
C         -0.03910        1.33900       -0.02490
C         -1.22710        1.94460        0.11450
O         -1.29550        3.27470        0.39560
C         -0.13030        4.01090        0.53920
N         -0.13420        5.25140        0.80060
C          1.10870        3.24830        0.36610
N          1.15680        1.98970        0.10030
H         -2.19410        1.47120        0.02440
H         -1.08490        5.61240        0.88620
H          2.03230        3.80950        0.47520
