17
gdb 19663	4.35649	2.09097	1.96332	1.1139	66.84	-0.2288	0.064	0.2928	748.2981	0.145335	-363.802955	-363.796978	-363.796034	-363.832652	24.939
O          0.04220        1.49890       -0.08190
C          0.01430        0.10040        0.02110
C          0.12140       -0.60930        1.40110
C         -0.91590        0.16690        2.23560
C         -2.10910       -0.31120        1.38270
C         -1.97910       -1.83170        1.58000
N         -0.71040       -1.75620        0.77390
C         -1.34690       -0.57500        0.02180
H          0.96020        1.78390       -0.12720
H          0.66230       -0.38890       -0.71590
H          1.07440       -0.89040        1.84780
H         -0.98670       -0.15420        3.27810
H         -0.74190        1.24320        2.19460
H         -3.05310        0.23030        1.44770
H         -1.88530       -2.22610        2.59760
H         -2.70470       -2.42650        1.01750
H         -1.92800       -0.78550       -0.87640
