14
gdb 16459	3.32188	2.97673	1.89632	2.8188	60.58	-0.2278	-0.0115	0.2163	691.888	0.106679	-382.449557	-382.443526	-382.442582	-382.479221	24.727
O         -0.06050        1.40870        0.08920
C          0.03120        0.03040        0.06610
C          0.93430       -0.71630        1.03940
C          0.70370       -2.00580        0.78250
C         -0.32610       -1.98920       -0.32970
C         -1.29890       -0.78590       -0.06730
O         -1.40250       -0.50020       -1.50130
C          0.01500       -0.79970       -1.28860
H          0.81430        1.78050       -0.06520
H          1.58800       -0.25750        1.76900
H          1.13090       -2.88420        1.24580
H         -0.73360       -2.90150       -0.75770
H         -2.20770       -0.73540        0.53700
H          0.68500       -0.76540       -2.15190
