17
gdb 19122	3.2931	1.76715	1.337	1.0401	74.66	-0.2381	0.0371	0.2752	952.4838	0.141684	-326.65004	-326.64217	-326.641226	-326.682155	30.146
C         -0.14050       -1.25930        0.57800
C         -0.10620       -0.08710        0.30900
C         -0.07880        1.31320       -0.03710
C          0.64400        2.23180        0.89910
N          1.23360        1.90140       -0.40300
C         -1.26050        1.79830       -0.83630
C         -1.16500        3.05080       -1.66590
C         -1.24160        1.70420       -2.34050
H         -0.16950       -2.29290        0.81970
H          0.29090        3.25500        0.99010
H          1.07970        1.80530        1.79730
H          1.95870        1.19800       -0.28900
H         -2.21120        1.60240       -0.34950
H         -2.03240        3.70060       -1.70060
H         -0.20690        3.55620       -1.69120
H         -0.33200        1.33390       -2.80000
H         -2.15600        1.42200       -2.84990
