16
gdb 17444	3.96649	1.83644	1.76066	3.2047	63.65	-0.2334	0.0523	0.2858	818.0021	0.129479	-383.660333	-383.653402	-383.652458	-383.690975	27.784
C         -0.12220        1.46520        0.07260
C          0.12370       -0.00380        0.01390
O         -0.80270       -0.88630        0.70140
C          0.61840       -0.98830        0.97130
C          1.30810       -1.81630       -0.14340
C          0.37420       -2.23310       -1.25250
O         -0.89180       -2.78150       -1.14220
C          0.77130       -0.77950       -1.17440
H          0.78740        2.01700       -0.18600
H         -0.90470        1.75530       -0.63780
H         -0.43950        1.75870        1.07650
H          0.92460       -0.90230        2.00720
H          2.31670       -2.19700       -0.03860
H          0.91540       -2.74150       -2.04860
H         -1.32320       -2.29140       -0.42850
H          1.31860       -0.27110       -1.95970
