17
gdb 14952	4.10957	1.53937	1.246	1.4534	65.64	-0.2164	-0.0317	0.1847	967.087	0.143541	-400.996064	-400.988712	-400.987767	-401.027829	27.498
O          0.02800       -0.05820        0.11740
C          0.05430        1.12830       -0.09480
C          1.32190        1.94910       -0.11010
C          1.35960        2.80860        1.18550
O          2.58040        3.51050        1.28200
C          3.69200        2.62320        1.31370
C          3.74370        1.79150        0.03150
N          2.48920        1.09750       -0.25180
H         -0.88240        1.70940       -0.24410
H          1.27360        2.64840       -0.95880
H          0.56300        3.55920        1.19280
H          1.22860        2.14600        2.05870
H          4.58250        3.24960        1.42340
H          3.61840        1.96230        2.19470
H          3.96350        2.46310       -0.80940
H          4.55210        1.05500        0.08200
H          2.36700        0.26670        0.31810
