15
gdb 20833	4.89532	1.59355	1.31432	2.247	69.02	-0.2336	-0.0703	0.1633	934.5426	0.120226	-358.861156	-358.854052	-358.853108	-358.893431	25.458
C         -0.01690        1.53070        0.08940
C         -0.02940        0.00220       -0.08310
C         -1.42450       -0.55540       -0.02940
N         -2.04240       -0.57430        1.16570
C         -3.27310       -1.05880        1.15820
C         -3.85600       -1.50620       -0.02770
N         -3.19740       -1.45890       -1.18080
N         -1.95840       -0.97590       -1.18400
H          1.00950        1.90780        0.08220
H         -0.56460        2.02020       -0.72170
H         -0.48140        1.81520        1.03780
H          0.41520       -0.27920       -1.04030
H          0.55580       -0.45810        0.72020
H         -3.80820       -1.09620        2.10490
H         -4.86290       -1.90960       -0.06250
