22
gdb 13280	6.92592	0.80607	0.76032	0.8798	79.88	-0.2426	0.0887	0.3313	1581.7276	0.199697	-350.194922	-350.185662	-350.184718	-350.229684	33.357
C         -0.08500        1.61810        0.19720
C          0.31430        0.15900       -0.03490
C          0.65870       -0.56430        1.26000
O          1.01280       -1.89920        0.95550
C          1.37850       -2.65750        2.07480
C          0.27240       -3.18700        3.03550
C          1.03560       -4.54040        3.06730
C          1.76650       -4.11580        1.76330
H          0.72530        2.18420        0.67000
H         -0.32840        2.11430       -0.74660
H         -0.96370        1.69330        0.84760
H         -0.49910       -0.38390       -0.52970
H          1.17960        0.10230       -0.70520
H          1.49490       -0.05660        1.77260
H         -0.20160       -0.53990        1.94990
H          2.17010       -2.14290        2.64400
H          0.10420       -2.66470        3.98010
H         -0.67620       -3.27470        2.49710
H          1.71970       -4.60340        3.91790
H          0.43990       -5.45440        3.03510
H          1.22880       -4.45360        0.87300
H          2.82660       -4.35370        1.65310
