18
gdb 12778	3.56765	1.53657	1.2961	1.0502	67.78	-0.2453	0.0778	0.3231	996.6007	0.15234	-384.901701	-384.893386	-384.892442	-384.934359	30.764
C         -0.12180        1.50560        0.06970
C          0.13330        0.03460        0.00510
O         -0.74080       -0.84010        0.73940
C          0.67340       -0.93480        0.97640
C          1.25660       -1.82040       -0.12980
C          0.68920       -0.79600       -1.17670
C         -0.31410       -1.30130       -2.19400
O          0.37020       -2.18900       -3.07020
H          0.75230        2.06640       -0.27690
H         -0.97200        1.78520       -0.56290
H         -0.34980        1.80730        1.09550
H          1.00720       -0.79640        1.99920
H          2.34780       -1.86350       -0.13100
H          0.85160       -2.83390       -0.17600
H          1.50290       -0.27100       -1.68660
H         -1.13420       -1.80670       -1.66540
H         -0.74530       -0.45090       -2.74880
H         -0.27880       -2.59190       -3.65410
