20
gdb 8191	2.62429	2.19462	1.60309	1.1715	75.33	-0.2355	0.0748	0.3103	913.665	0.175742	-348.980097	-348.971577	-348.970632	-349.012048	33.315
C         -0.03700        1.55950        0.04180
C          0.07190        0.05010        0.06530
O         -1.09960       -0.57690       -0.41380
C          1.32510       -0.73690       -0.25040
C          2.58090       -0.05620        0.29630
C          1.94270       -0.06340        1.72340
C          0.69490       -0.76940        1.16580
C         -0.04330       -1.85150        1.90070
H          0.84950        2.05560        0.44190
H         -0.17610        1.91660       -0.98660
H         -0.90410        1.88210        0.62710
H         -1.15580       -0.40150       -1.35940
H          1.29470       -1.49860       -1.02270
H          3.46530       -0.69510        0.24150
H          2.83770        0.91820       -0.13270
H          2.49490       -0.70530        2.41430
H          1.78590        0.90440        2.21090
H         -0.51040       -1.45380        2.81080
H         -0.83200       -2.27850        1.27890
H          0.63630       -2.65550        2.20620
