19
gdb 14736	5.01987	0.70078	0.6245	2.063	72.65	-0.245	0.0269	0.2719	1753.162	0.163062	-402.179567	-402.169396	-402.168452	-402.215963	33.788
C         -0.02440        1.05870       -0.54950
O         -0.38970        0.10060        0.43410
C         -1.19780       -0.89420        0.00350
N         -1.57110       -1.78660        0.80490
C         -2.43820       -2.86620        0.36760
C         -2.89760       -2.90590       -1.09560
C         -3.79800       -4.10220       -1.37500
O         -4.17110       -4.05620       -2.74440
H          0.61920        1.78340       -0.04910
H          0.53150        0.59860       -1.37610
H         -0.90190        1.57940       -0.95310
H         -1.46200       -0.82170       -1.05950
H         -1.92250       -3.80630        0.60960
H         -3.32090       -2.85030        1.02270
H         -3.44970       -1.99400       -1.35380
H         -2.03560       -2.96070       -1.77160
H         -3.26120       -5.03590       -1.14000
H         -4.68370       -4.06340       -0.71980
H         -4.74020       -4.80980       -2.92620
