18
gdb 14243	4.02731	1.58988	1.43607	3.0544	71.64	-0.236	-0.0162	0.2198	936.3143	0.153801	-347.801411	-347.793974	-347.79303	-347.833303	28.628
C          0.28960        1.57830       -0.09410
C          0.09100        0.07390        0.01810
C          0.92840       -0.86810       -0.89970
C          1.25510       -1.78520        0.32930
C          0.60010       -0.69740        1.26860
C          2.01030       -0.32370        1.81430
C          2.61180       -1.44990        0.94610
O          3.71020       -1.91510        0.84420
H          1.34550        1.85830       -0.01950
H         -0.07550        1.94600       -1.05950
H         -0.25560        2.11200        0.69240
H         -0.97240       -0.15420       -0.11260
H          0.36970       -1.36560       -1.69440
H          1.81060       -0.40240       -1.34900
H          0.95520       -2.83110        0.26260
H         -0.13500       -0.94940        2.03270
H          2.38700        0.68410        1.61910
H          2.13890       -0.52760        2.88230
