9
gdb 3905	6.30373	2.98785	2.02706	1.7883	46.67	-0.2704	-0.111	0.1594	554.5055	0.05722	-371.546126	-371.5411	-371.540156	-371.575153	17.665
O         -0.02520       -0.06370        0.00300
C          0.03810        1.13660        0.00870
N         -1.14310        1.92020        0.02870
N         -1.22870        3.24360        0.03690
N         -0.14100        3.91430        0.02600
C          1.04210        3.18980        0.00650
N          1.19680        1.90630       -0.00260
H         -2.03410        1.43720        0.03800
H          1.93100        3.81700       -0.00230
