18
gdb 17212	4.3134	1.79883	1.56046	2.3043	71.21	-0.213	0.0642	0.2772	868.496	0.155769	-343.904609	-343.897788	-343.896844	-343.935754	26.816
C         -0.33960        1.37290        0.14460
N          1.06500        0.93870        0.00270
C          0.00640       -0.06170        0.04140
C         -0.06510       -1.20240        1.06210
N         -0.48980       -2.16150       -0.00980
C         -1.97670       -2.18600       -0.21340
C         -1.88300       -1.19060       -1.40090
C         -0.38440       -1.05940       -1.05360
H         -0.58730        1.80770        1.10960
H         -0.83400        1.84270       -0.70320
H          1.38260        1.08190       -0.95380
H          0.90860       -1.46890        1.48500
H         -0.78850       -1.09220        1.87830
H         -2.34250       -3.18510       -0.46690
H         -2.54220       -1.82330        0.65290
H         -2.06580       -1.64910       -2.37510
H         -2.47510       -0.27550       -1.32690
H          0.34170       -1.19320       -1.86340
