15
gdb 17127	4.94367	1.42132	1.33034	3.3642	60.95	-0.2577	0.001	0.2587	932.7574	0.119762	-399.795456	-399.788446	-399.787502	-399.827293	25.638
O          0.46110        0.32160       -0.42740
C          0.11680        1.35590        0.04060
C         -1.12550        2.24260        0.07040
C         -0.26230        3.14270        0.98120
O          0.86080        2.20330        0.83630
C          0.07980        4.52560        0.49900
C          1.44640        5.07150        0.66840
N          0.93740        4.72750       -0.67480
H         -1.38840        2.66900       -0.89950
H         -2.00260        1.77740        0.52200
H         -0.58630        3.16150        2.02600
H         -0.76650        5.20930        0.55120
H          1.58680        6.13260        0.85080
H          2.19460        4.42020        1.11030
H          1.34660        3.83680       -0.95150
