15
gdb 10278	2.65509	1.69087	1.09139	1.6031	61.86	-0.2705	-0.0421	0.2284	1041.8644	0.116114	-399.825893	-399.816797	-399.815853	-399.860683	30.85
C          0.01120        1.36520        0.50470
C          0.05230        0.01910       -0.17800
O          1.01930       -0.39860       -0.76350
C         -1.24340       -0.83610       -0.14710
C         -0.97370       -2.31700       -0.51730
O         -2.16560       -3.05540       -0.64070
C         -1.94960       -0.75060        1.12880
N         -2.49820       -0.73170        2.14690
H          0.92480        1.91640        0.28130
H         -0.86580        1.93720        0.18260
H         -0.08450        1.22930        1.58750
H         -1.90850       -0.41630       -0.91580
H         -0.47800       -2.33380       -1.48850
H         -0.28260       -2.75120        0.21720
H         -2.54980       -3.16620        0.23620
