15
gdb 8253	6.75327	1.08351	0.96577	2.3087	68.18	-0.2387	-0.0278	0.211	1139.7703	0.116367	-362.608273	-362.600384	-362.59944	-362.64096	28.602
O         -0.05060       -0.02350       -0.07070
C         -0.04370        1.16030        0.07230
C         -1.11830        2.25420        0.18000
N         -0.04660        3.18060        0.61580
C         -0.03320        4.50050        0.00260
C          1.11910        5.28940        0.42770
C          2.07940        5.93020        0.75930
C          1.03690        2.23740        0.24460
H         -1.54990        2.48530       -0.80890
H         -1.93100        2.10240        0.89740
H         -0.03790        4.44240       -1.10550
H         -0.95740        5.01820        0.28850
H          2.92290        6.50140        1.05950
H          1.80110        2.07560        1.01020
H          1.53370        2.46410       -0.71320
