15
gdb 7725	3.33714	1.87357	1.28292	4.3803	61.95	-0.2455	-0.0263	0.2193	906.1231	0.119924	-399.864611	-399.857397	-399.856452	-399.896697	26.647
O          0.05150        0.36830       -1.01700
C         -0.01710        1.24510       -0.19240
C         -1.34320        1.89910        0.19210
C         -1.22500        2.79150        1.43100
N         -0.08220        3.68190        1.29650
C          1.15580        3.26600        0.89230
O          2.12020        4.00050        0.83700
C          1.21610        1.78300        0.52690
H         -1.65400        2.50390       -0.66890
H         -2.09680        1.11760        0.32360
H         -2.12410        3.40180        1.54460
H         -1.14440        2.17340        2.33800
H         -0.14090        4.63520        1.62040
H          1.30040        1.21960        1.46930
H          2.11560        1.58300       -0.05440
