17
gdb 18327	3.22129	2.29692	1.5791	2.1817	67.06	-0.2157	-0.0241	0.1916	828.5659	0.144053	-363.86418	-363.857443	-363.856499	-363.895306	25.999
O         -0.15910        0.21710        0.55170
C         -0.11060        1.35320        0.15800
C         -1.30310        2.28230       -0.11450
C         -0.69070        3.46250       -0.89740
N          0.74460        3.50010       -0.56610
C          1.11590        4.03960        0.77330
C          1.88920        2.73360        1.08550
C          1.16970        2.14060       -0.15370
H         -2.09910        1.74670       -0.63630
H         -1.70970        2.59370        0.85560
H         -0.79940        3.30110       -1.97630
H         -1.15190        4.42590       -0.66470
H          1.69660        4.96560        0.72730
H          0.25810        4.20200        1.44120
H          2.96700        2.81990        0.94250
H          1.69120        2.24710        2.04150
H          1.78120        1.58500       -0.87340
