19
gdb 18165	3.69558	1.47299	1.30432	1.3336	71.69	-0.2293	0.0733	0.3026	1007.6918	0.165185	-364.999423	-364.991155	-364.990211	-365.03215	30.827
C         -0.53750        1.21750       -0.09220
N         -0.09290       -0.12450        0.24390
C          1.17760       -0.67730       -0.14800
C          2.34790        0.32150       -0.02020
C          2.03550        0.44750        1.50620
C          1.89420        1.79800        2.18520
O          3.19900        2.35790        2.28110
C          0.81300       -0.47830        1.31090
H          0.26110        1.95760       -0.23250
H         -1.11030        1.16710       -1.02440
H         -1.20740        1.57900        0.69440
H          1.18930       -1.58870       -0.73680
H          3.32060       -0.13420       -0.21210
H          2.27420        1.23410       -0.61910
H          2.79910       -0.10670        2.06260
H          1.22370        2.46310        1.62400
H          1.44790        1.65230        3.18350
H          3.12310        3.23200        2.67460
H          0.46790       -1.20270        2.04250
