13
gdb 21798	6.22111	1.20559	1.12009	1.6374	59.96	-0.2581	-0.0406	0.2175	1010.808	0.096943	-394.81383	-394.806792	-394.805848	-394.847105	23.922
O         -0.40500        0.84660        0.95680
C          0.10850        1.05740       -0.10800
C          1.45280        1.76740       -0.27750
C          1.37680        2.83960       -1.31350
N          1.35860        2.66200       -2.62430
C          1.22390        3.92960       -3.10440
N          1.15720        4.87730       -2.18500
N          1.25000        4.15750       -1.04120
H         -0.35950        0.74460       -1.06520
H          1.77150        2.14880        0.69550
H          2.17720        1.01630       -0.61520
H          1.17850        4.15920       -4.15830
H          1.23040        4.62750       -0.15050
