15
gdb 9056	4.83933	0.90501	0.79368	3.8691	66.45	-0.281	0.0031	0.2841	1335.8266	0.119011	-358.861579	-358.852895	-358.851951	-358.895453	30.057
N         -0.08680        1.50500        0.13810
C          0.03680        0.05420        0.01800
C          0.72770       -0.48840       -1.26010
C         -0.04730       -0.10850       -2.53540
C          0.59540       -0.61670       -3.74440
N          1.11530       -1.02220       -4.69300
C          0.75420       -0.46260        1.19680
N          1.34330       -0.88190        2.09730
H          0.81310        1.95930        0.01690
H         -0.72420        1.87310       -0.55840
H         -0.98040       -0.35770        0.06230
H          1.74750       -0.09340       -1.31350
H          0.81040       -1.57750       -1.19220
H         -1.06980       -0.50330       -2.49290
H         -0.12960        0.98070       -2.62440
