16
gdb 18035	4.21981	1.99728	1.45638	1.7682	66.98	-0.2412	0.0085	0.2496	839.8813	0.132372	-383.704622	-383.698216	-383.697272	-383.735036	24.936
C          0.00480        1.47310        0.12320
O          1.44160        1.44160       -0.13400
C          1.34190        0.11230       -0.71680
C          2.17190       -1.03820       -0.15530
O          1.46840       -2.22390       -0.52060
C          0.19810       -2.40310        0.09380
C         -0.58250       -1.12480        0.28950
C         -0.04890       -0.00470       -0.16840
H         -0.23390        1.79440        1.14320
H         -0.51150        2.12690       -0.59340
H          1.43710        0.15970       -1.80960
H          3.16630       -1.13230       -0.59860
H          2.27040       -0.92880        0.93460
H         -0.33430       -3.12240       -0.54010
H          0.32110       -2.87910        1.08320
H         -1.47940       -1.16330        0.90110
