17
gdb 3030	10.0161	1.08177	1.04989	0.8334	70.36	-0.256	0.0595	0.3155	1120.0654	0.147281	-272.539126	-272.53132	-272.530376	-272.57135	28.521
C         -0.02400       -1.19460        0.01430
C         -0.00090        0.00450        0.09650
C          0.06470        1.45780        0.18500
C          1.43580        2.02820       -0.24050
C          1.48570        3.53700       -0.14580
C          1.79900        4.20830        1.16980
C          2.80050        4.24830        0.04110
H         -0.05870       -2.25340       -0.05450
H         -0.72160        1.89800       -0.44240
H         -0.15530        1.77600        1.21200
H          2.21530        1.59070        0.39430
H          1.65290        1.70360       -1.26510
H          0.75830        4.04820       -0.77270
H          1.27380        5.12150        1.42660
H          2.02410        3.57270        2.02050
H          3.69450        3.64050        0.13620
H          2.95760        5.18850       -0.47580
