18
gdb 12137	4.92247	1.51896	1.40168	1.8305	72.71	-0.2416	0.0898	0.3314	956.2622	0.152748	-347.756443	-347.748919	-347.747975	-347.787848	29.437
C          0.08020        1.52830       -0.00980
C         -0.07980        0.05010        0.12890
C         -1.37860       -0.78610        0.03500
C         -0.71380       -1.80210        0.99830
C         -1.35740       -2.46400        2.18040
C         -0.81480       -3.29470        1.03630
C          0.53500       -0.94480        1.02860
O          0.98230       -0.79900       -0.33260
H          1.09340        1.82990        0.26890
H         -0.09520        1.84300       -1.04510
H         -0.63420        2.05960        0.62740
H         -2.24840       -0.28900        0.47430
H         -1.62110       -1.14080       -0.97030
H         -0.81590       -2.47470        3.12150
H         -2.43400       -2.38050        2.29000
H         -1.52860       -3.77110        0.37210
H          0.09120       -3.86890        1.20050
H          1.28010       -0.84160        1.81080
