12
gdb 2818	4.5235	1.95467	1.49875	4.3155	56.31	-0.2681	-0.0418	0.2263	770.2715	0.089549	-323.385837	-323.379192	-323.378248	-323.416769	23.148
O         -0.00700       -0.03080       -0.35000
C          0.03600        1.09560        0.07200
C          1.27520        1.92100        0.08330
C          1.16130        3.40450       -0.18650
C          1.50350        2.94490        1.20480
C          0.54470        3.09710        2.26620
N         -0.21860        3.23190        3.12460
H         -0.86680        1.60490        0.47560
H          2.15930        1.40330       -0.27030
H          1.94390        3.87360       -0.77010
H          0.16680        3.80820       -0.34150
H          2.53400        3.04910        1.52650
