15
gdb 6008	2.5849	1.72844	1.66178	3.1656	63.37	-0.2437	0.0103	0.254	895.5696	0.11538	-399.796851	-399.787613	-399.786669	-399.830389	33.594
C         -0.20420        1.59960       -0.06660
C          0.03370        0.08330       -0.03220
O          0.88560       -0.27560        1.06730
C         -1.23250       -0.65000        0.05730
C         -2.26790       -1.24730        0.18390
C          0.75140       -0.34720       -1.35010
N          1.73170       -1.26080       -1.16660
O          0.41150        0.10450       -2.42360
H          0.76010        2.11410       -0.04780
H         -0.73480        1.86810       -0.98070
H         -0.79160        1.90830        0.80210
H          0.32810       -0.38940        1.84370
H         -3.18340       -1.77860        0.27400
H          2.01360       -1.50590       -0.23300
H          2.26740       -1.55870       -1.96430
