16
gdb 20112	3.99979	1.4425	1.25085	2.1136	66.31	-0.2493	-0.028	0.2213	996.6044	0.129784	-383.720281	-383.712621	-383.711677	-383.752975	27.658
O          0.66060        0.68630       -1.87250
C          0.22690        1.38490       -0.97770
C          0.97790        1.66560        0.27290
C          1.82600        0.53170        0.84070
C          2.49700        1.67840        0.17200
C         -1.14570        1.98900       -1.12040
C         -2.14770        1.84300       -0.04430
O         -1.50130        3.08580       -0.27410
H          0.51380        2.35650        0.96440
H          1.87310        0.44800        1.92040
H          1.77890       -0.40570        0.29820
H          2.89820        1.51180       -0.82110
H          3.02040        2.40940        0.77690
H         -1.49340        2.05160       -2.14970
H         -3.20120        1.79850       -0.31440
H         -1.87450        1.33340        0.87820
