16
gdb 16456	3.29277	2.88126	1.8593	1.741	67.97	-0.231	-0.0058	0.2252	735.9232	0.130477	-346.528561	-346.522341	-346.521397	-346.558337	25.798
C          0.00290        1.54260        0.00010
C          0.04830        0.03630       -0.05070
C          0.46800       -0.71570       -1.30460
C          0.38790       -2.00900       -0.97980
C         -0.07820       -2.00580        0.46200
C          0.60670       -0.79190        1.17400
O         -0.59450       -0.51500        1.97080
C         -1.09200       -0.82460        0.62500
H          0.98870        1.97610       -0.20080
H         -0.69350        1.94370       -0.74430
H         -0.32360        1.87040        0.99090
H          0.76210       -0.26220       -2.24170
H          0.59950       -2.88100       -1.58260
H         -0.24100       -2.92550        1.02060
H          1.57750       -0.72960        1.67390
H         -2.17320       -0.80170        0.46170
