18
gdb 10036	2.94448	1.31775	0.95513	0.1801	79.89	-0.2591	0.0387	0.2978	1216.0438	0.150475	-310.608617	-310.599108	-310.598164	-310.64277	34.592
C          0.74500       -0.27540        1.39790
C          0.08760       -0.10770        0.02750
C         -1.35690       -0.65310       -0.03290
C         -2.04470       -0.32600       -1.39240
C         -2.20500        1.10360       -1.62480
C         -2.34030        2.28610       -1.79490
C         -1.40290       -2.09490        0.20160
C         -1.43640       -3.28610        0.36240
H          1.76600        0.11760        1.39030
H          0.18720        0.26270        2.17260
H          0.78900       -1.32920        1.68830
H          0.05330        0.95200       -0.24640
H          0.68390       -0.61680       -0.73950
H         -1.94020       -0.15610        0.75420
H         -1.45630       -0.77520       -2.20190
H         -3.02500       -0.81450       -1.41770
H         -2.46350        3.32790       -1.95880
H         -1.46990       -4.33570        0.52030
