12
gdb 4404	3.8961	2.06804	1.35111	7.2508	61.96	-0.2309	-0.0483	0.1826	824.6886	0.084475	-414.725922	-414.718996	-414.718051	-414.757104	25.267
N          0.05300        1.34300        0.06610
C         -0.05570        0.00050        0.02260
C         -1.24060       -0.71220        0.01460
C         -1.10990       -2.10400       -0.00950
N          0.01940       -2.78250       -0.02430
C          1.19270       -2.11090       -0.01630
O          2.31160       -2.51790       -0.02570
O          1.10600       -0.62180        0.00500
H          0.96430        1.75780       -0.03370
H         -0.76040        1.92370       -0.03300
H         -2.20150       -0.21900        0.02900
H         -2.01580       -2.71010       -0.01790
