19
gdb 2091	4.48514	2.29756	1.63235	0.2145	72.41	-0.2345	0.0336	0.268	810.484	0.173584	-273.811544	-273.804595	-273.80365	-273.842014	27.209
C         -0.00850        1.56580        0.01670
C          0.02510        0.03570        3.86300
C          0.69930       -0.51490       -1.26620
C          0.61860       -2.04730       -1.32930
C          0.94960       -2.68450       -0.00480
C          1.00940       -2.00580        1.14010
C          0.72340       -0.53000        1.24920
H          1.00600        1.98040       -0.02270
H         -0.56250        1.96140       -0.84140
H         -0.48590        1.94510        0.92700
H         -1.01190       -0.33110        0.00830
H          0.24420       -0.07490       -2.16120
H          1.75390       -0.20640       -1.26710
H         -0.38860       -2.35960       -1.64480
H          1.29500       -2.42950       -2.10460
H          1.14760       -3.75410       -0.00810
H          1.27420       -2.52330        2.05960
H          1.66450        0.01530        1.42540
H          0.10900       -0.33610        2.13850
