12
gdb 16258	3.48452	2.01404	1.44994	4.5081	61.43	-0.2908	-0.0147	0.2762	815.8686	0.084188	-377.49835	-377.491866	-377.490922	-377.529092	24.109
N         -0.01140        1.22520        0.00160
C         -0.02800       -0.01980        0.05520
O          1.00380       -0.95310        0.19050
C          0.07860       -2.04090       -0.01410
C         -0.90770       -2.07770        1.08470
C         -1.09950       -1.06700       -0.06950
C         -2.26230       -1.02870       -0.88650
N         -3.21080       -1.01320       -1.54820
H          0.93290        1.60160        0.09220
H          0.36630       -2.83190       -0.69180
H         -1.62440       -2.89210        1.06320
H         -0.63550       -1.70670        2.06700
