16
gdb 20563	4.53535	1.54678	1.19837	2.4899	66.17	-0.2369	0.0197	0.2566	977.3478	0.132271	-379.943524	-379.935959	-379.935015	-379.975708	28.085
C          0.23900        1.35930       -0.40420
C         -0.00680       -0.01690        0.21130
O          0.34610       -0.05850        1.59660
C         -1.42150       -0.49700        0.02240
C         -2.39560       -0.27180       -0.93360
C         -3.48900       -1.06600       -0.52570
N         -3.22960       -1.73270        0.59620
N         -1.96940       -1.37380        0.90160
H          1.27330        1.66390       -0.22620
H          0.06160        1.34290       -1.48350
H         -0.43150        2.10660        0.03460
H          0.68130       -0.73640       -0.25120
H         -0.16150        0.62930        2.04380
H         -2.32680        0.36770       -1.79840
H         -4.45340       -1.17340       -1.00050
H         -1.52400       -1.72390        1.73370
