17
gdb 16470	3.19169	2.81924	1.84575	2.0371	67.42	-0.228	0.0689	0.2969	749.4163	0.144173	-363.801905	-363.795616	-363.794672	-363.831803	26.041
O         -0.05340        1.39080        0.07560
C          0.01760        0.00020        0.03410
C          0.95470       -0.72430        0.99910
C          0.57260       -2.16760        0.60160
N         -0.45870       -1.98880       -0.45990
C         -1.31610       -0.79930       -0.03590
C         -1.47660       -0.43300       -1.52370
C         -0.00050       -0.81540       -1.31590
H          0.84170        1.74460        0.04840
H          2.00760       -0.48300        0.81220
H          0.73240       -0.47810        2.04170
H          1.40840       -2.74270        0.19320
H          0.14060       -2.74090        1.42650
H         -2.07950       -0.89610        0.73930
H         -2.06780       -1.12640       -2.12270
H         -1.68240        0.61370       -1.74490
H          0.79550       -0.93250       -2.05560
