14
gdb 21267	3.51664	1.89228	1.24	2.9229	60.06	-0.199	0.032	0.231	919.6949	0.107754	-415.857931	-415.850248	-415.849304	-415.889967	27.631
C         -0.06740        1.42910        0.02860
O         -0.00440        0.01740        0.04910
C          0.61020       -0.54360       -1.01980
C          1.19250        0.02170       -2.13860
N          1.65660       -1.01660       -2.88630
N          1.41280       -2.22330       -2.32420
C          0.78130       -1.93990       -1.19770
O          0.36040       -2.88980       -0.33660
H          0.93800        1.87330        0.01220
H         -0.62820        1.79110       -0.84480
H         -0.58240        1.73500        0.94050
H          1.30760        1.04670       -2.44790
H          2.13620       -0.97660       -3.76640
H          0.61250       -3.74140       -0.71510
