19
gdb 17689	4.7349	1.49444	1.45249	2.0131	75.17	-0.2257	0.0833	0.309	949.5075	0.167411	-327.831377	-327.82443	-327.823486	-327.862862	27.545
C         -0.16280        1.41110       -0.16210
C          1.25330        0.97250        0.10830
C          0.14480       -0.05210        0.05300
C         -0.30750       -0.74440        1.29600
C         -0.41190       -0.20740        2.74740
N         -0.90030       -1.65610        2.91670
C         -1.67790       -1.39730        1.61560
C          0.26860       -2.01050        1.98250
H         -0.68780        1.93770        0.62780
H         -0.42090        1.73870       -1.16280
H          1.96780        0.99900       -0.70670
H          1.67720        1.20530        1.07950
H          0.12020       -0.67910       -0.83510
H          0.51440        0.00360        3.28990
H         -1.18120        0.53780        2.97030
H         -2.54370       -0.74150        1.74700
H         -1.95030       -2.31250        1.08160
H          0.14550       -2.97270        1.47650
H          1.24910       -1.93650        2.46210
