13
gdb 20324	6.04094	1.29705	1.13409	2.5771	64.22	-0.2669	-0.0137	0.2532	993.0118	0.095161	-361.421908	-361.414905	-361.413961	-361.45398	25.404
C         -0.21360       -1.01410       -0.72880
C         -0.05770        0.02930       -0.15460
C          0.13180        1.30580        0.52730
C          1.46250        1.94700        0.22880
N          2.16390        2.46590        1.20820
O          3.30270        3.00120        0.61490
C          3.24600        2.77940       -0.70610
C          2.10950        2.11560       -1.02970
H         -0.35280       -1.94240       -1.22530
H         -0.67150        1.99480        0.23320
H          0.04870        1.17990        1.61200
H          4.08290        3.14650       -1.27990
H          1.77730        1.78180       -1.99780
