20
gdb 6982	2.56102	2.12752	1.67552	0.6014	69.91	-0.2604	0.0704	0.3308	898.9104	0.176449	-386.157443	-386.148607	-386.147663	-386.19046	33.603
C         -0.41200        1.52270        0.03240
C          0.04790        0.06900        0.04080
O         -1.07770       -0.81740        0.11550
C          0.96030       -0.32380       -1.13820
C          1.66650       -1.62760       -0.69010
C          1.49170       -1.68890        0.85470
C          0.90460       -0.32620        1.25890
O          1.91230        0.67320        1.39600
H          0.43910        2.20230        0.10600
H         -0.95500        1.74790       -0.89380
H         -1.08550        1.71030        0.87390
H         -1.61020       -0.67490       -0.67370
H          0.38580       -0.44170       -2.06350
H          1.69030        0.47310       -1.30420
H          1.21540       -2.50510       -1.15920
H          2.72010       -1.62130       -0.98040
H          0.79080       -2.47940        1.13290
H          2.43120       -1.88490        1.38290
H          0.28530       -0.38430        2.16430
H          2.54000        0.36720        2.05710
