15
gdb 18512	6.35348	1.15016	1.08826	2.4332	62.79	-0.2573	0.0024	0.2597	1063.8294	0.118788	-399.766061	-399.758911	-399.757966	-399.798443	25.619
O         -0.06910       -0.01780       -0.12470
C         -0.00880        1.17250       -0.17390
O          1.11290        1.86020        0.12140
C          1.08400        3.28410        0.04230
C          1.58510        4.06220        1.28170
N          2.61480        4.79460        0.46040
C          3.51030        3.74410       -0.04580
C          2.21690        3.92840       -0.73400
H         -0.85150        1.83160       -0.46260
H          0.09590        3.61570       -0.29140
H          0.85240        4.75740        1.69460
H          2.00870        3.45080        2.08360
H          4.38760        4.14010       -0.54680
H          3.68490        2.85500        0.55520
H          2.13740        4.33260       -1.73740
