15
gdb 3524	5.73595	2.59601	2.30976	1.7442	61.28	-0.2558	0.1001	0.3559	624.6638	0.126326	-308.437835	-308.432354	-308.43141	-308.466768	22.095
C          0.02000        1.51280        0.01020
O          1.19820        0.66260       -0.00640
C         -0.07040        0.06240        0.00300
C         -0.58940       -1.02350        0.95670
C         -1.83140       -1.09220        0.01430
C         -0.60860       -1.01290       -0.95210
C          0.09620       -2.04410       -0.01040
H         -0.12890        2.07030        0.93390
H         -0.14730        2.08060       -0.90410
H         -0.57750       -1.02430        2.04640
H         -2.36760       -2.04360        0.01440
H         -2.51560       -0.24010        0.02590
H         -0.61860       -1.00150       -2.04170
H          1.18730       -2.05400       -0.02140
H         -0.32370       -3.05320       -0.01180
