16
gdb 18097	4.59521	1.81381	1.34428	0.0003	66.73	-0.2286	0.0191	0.2477	883.7169	0.132332	-383.731885	-383.725054	-383.724109	-383.763254	24.757
C         -0.04820        1.48750        0.10850
O          1.27290        1.90340       -0.26570
C          2.09920        0.77480       -0.58470
C          1.19970       -0.40150       -0.38430
C         -0.00270       -0.00240        0.00380
C         -0.90230       -1.17870        0.20410
O         -0.07590       -2.30730       -0.11470
C          1.24520       -1.89140       -0.48910
H         -0.27330        1.84430        1.12560
H         -0.78550        1.94750       -0.56780
H          2.46820        0.86770       -1.61800
H          2.98060        0.76430        0.07530
H         -1.27130       -1.27160        1.23730
H         -1.78350       -1.16820       -0.45600
H          1.47020       -2.24810       -1.50620
H          1.98250       -2.35150        0.18710
