14
gdb 20658	5.87996	1.6095	1.27436	2.1519	68.57	-0.2229	-0.0566	0.1662	916.1326	0.108384	-374.932694	-374.925435	-374.924491	-374.964392	26.607
C         -0.02750        1.49060        0.03050
C          0.00550       -0.01100       -0.01330
C          0.06380       -0.73930       -1.21050
N          0.10290       -2.05810       -1.23130
C          0.08460       -2.63500       -0.01340
N          0.18270       -3.99220        0.03930
N          0.00170       -1.98950        1.16370
N         -0.03380       -0.66760        1.14840
H          0.88810        1.92450       -0.38700
H         -0.86890        1.89180       -0.54520
H         -0.12490        1.81890        1.06670
H          0.07200       -0.23050       -2.17360
H         -0.00610       -4.49920       -0.80870
H         -0.04890       -4.42930        0.91570
