18
gdb 11918	4.57791	1.46591	1.28206	1.1582	67.85	-0.2297	0.0651	0.2947	985.251	0.154044	-384.923746	-384.916098	-384.915154	-384.956272	29.343
O          0.01060        1.40670       -0.06200
C          0.01070       -0.00740        0.00050
C          0.55530       -0.59140        1.31760
O         -0.04290       -1.87140        1.41230
C         -1.37570       -1.73710        0.94510
C         -2.12650       -3.01270        0.75810
C         -2.48390       -2.07770        1.90420
C         -1.43460       -0.53560        0.00130
H          0.91830        1.70350       -0.17910
H          0.56890       -0.43670       -0.84370
H          1.64090       -0.72340        1.33830
H          0.25730        0.06940        2.14810
H         -2.80900       -3.09260       -0.08170
H         -1.60320       -3.92870        1.00950
H         -2.19320       -2.38630        2.90210
H         -3.41230       -1.51820        1.84700
H         -2.08630        0.25280        0.38970
H         -1.78130       -0.80040       -1.00030
