16
gdb 11231	4.1993	1.43149	1.30873	3.5588	68.41	-0.2283	-0.0253	0.203	983.6426	0.12892	-383.752119	-383.744194	-383.74325	-383.784911	28.056
C         -0.07760        1.49440        0.04640
C          0.01240        0.00450        0.00630
C         -0.09200       -0.81580       -1.03710
C          0.02330       -2.24870       -0.56640
O          0.36880       -2.16580        0.79960
C          0.23980       -0.82050        1.24920
C         -1.30620       -2.97630       -0.78350
O         -2.07530       -3.27350        0.08840
H          0.84600        1.93630        0.44000
H         -0.26200        1.91430       -0.94530
H         -0.88790        1.81920        0.71090
H         -0.27070       -0.53840       -2.06790
H          0.79840       -2.81380       -1.11260
H          1.15530       -0.53190        1.78640
H         -0.59940       -0.72750        1.95690
H         -1.51740       -3.19660       -1.85810
