18
gdb 10826	4.34477	1.49868	1.19211	2.9697	68.39	-0.2306	-0.0202	0.2104	1015.7092	0.153885	-384.971179	-384.963394	-384.96245	-385.003293	29.321
C         -0.07330        1.53820        0.06850
C          0.00750        0.02160       -0.01680
C          0.70310       -0.47710       -1.28710
C          0.81960       -2.01110       -1.28400
C          1.30370       -2.55720        0.05020
O          2.01720       -3.52640        0.15150
C          0.76050       -1.82550        1.27890
O          0.73240       -0.41980        1.12950
H          0.93010        1.97430        0.04400
H         -0.64890        1.94110       -0.76990
H         -0.55540        1.84130        1.00130
H         -1.01330       -0.40220        0.02250
H          0.15730       -0.14090       -2.17550
H          1.70200       -0.02650       -1.32840
H         -0.17720       -2.44870       -1.44610
H          1.46760       -2.39070       -2.07790
H         -0.25390       -2.22010        1.48040
H          1.39170       -2.05600        2.13950
