16
gdb 3474	4.55164	2.94482	2.6567	1.7442	63.92	-0.2307	0.1005	0.3312	615.8598	0.138272	-288.579114	-288.573228	-288.572284	-288.608362	23.342
C         -0.11030        1.52760       -0.04720
C          0.07810        0.05190        0.03070
C          0.66350       -0.97250       -0.86820
C          1.40970       -1.65360        0.27480
C          0.36380       -0.98200        1.20410
C         -0.94490       -1.64550        0.75330
N         -0.82280       -0.97030       -0.57990
H          0.80700        2.06120        0.22530
H         -0.38360        1.81410       -1.06760
H         -0.90850        1.86640        0.62290
H          0.93770       -0.89410       -1.91250
H          1.47650       -2.74720        0.29530
H          2.40590       -1.22020        0.39750
H          0.59250       -0.76800        2.24690
H         -0.98820       -2.74130        0.72560
H         -1.83390       -1.25440        1.25520
