16
gdb 17751	3.82792	2.58708	2.11429	1.2474	66.52	-0.2273	0.076	0.3033	694.4021	0.1318	-346.525463	-346.519693	-346.518749	-346.554775	24.807
O         -0.07140        1.35450        0.01860
C          0.07200       -0.02380       -0.00920
C          1.07830       -0.81570        0.86670
C          0.80690       -1.95580       -0.14470
C         -0.71580       -2.23870       -0.12090
C         -1.00390       -1.44320       -1.37540
C         -1.25500       -0.81240       -0.02390
C          0.45610       -0.90970       -1.27100
H          0.80270        1.75140       -0.05570
H          2.09680       -0.42200        0.76040
H          0.84610       -0.97490        1.92420
H          1.49850       -2.78340       -0.28990
H         -1.24350       -3.09310        0.28260
H         -1.67200       -1.63690       -2.20340
H         -2.18750       -0.55230        0.45870
H          1.13000       -0.60400       -2.06790
