11
gdb 23810	3.44086	2.33642	1.39154	1.4004	58.17	-0.2442	-0.0742	0.17	776.7836	0.073225	-434.832526	-434.826467	-434.825523	-434.862857	22.599
F          0.02800        0.04610        0.00380
C          0.00760        1.36220        0.01050
C         -1.14490        2.06090        0.02900
N         -1.19020        3.44820        0.03640
N         -0.10920        4.10770        0.02550
N          1.06390        3.43450        0.00680
C          1.28920        2.04670       -0.00290
N          2.41310        1.44410       -0.02060
H         -2.10670        1.56320        0.03920
H          1.86260        4.05450       -0.00060
H          3.19990        2.09440       -0.02770
