18
gdb 18959	6.12773	1.32453	1.30711	2.0316	71.03	-0.2294	0.0756	0.305	1000.7539	0.153576	-347.70901	-347.70197	-347.701026	-347.740393	27.387
C          0.02760        1.58840       -0.10100
C          0.02710        0.08370        0.19090
C         -1.36530       -0.53280        0.12720
C         -2.01020       -0.80710       -1.25520
C         -1.23610       -2.15430       -1.43600
O         -2.42720       -2.94180       -1.73110
C         -2.84540       -2.00070       -0.69810
C         -1.50860       -2.07310        0.10190
H          1.03640        2.00710       -0.03400
H         -0.35450        1.79810       -1.10590
H         -0.60510        2.12870        0.61190
H          0.69080       -0.42860       -0.51770
H          0.45110       -0.09460        1.18790
H         -2.03850       -0.03540        0.83730
H         -2.31140       -0.11970       -2.04600
H         -0.32070       -2.37790       -1.98200
H         -3.87550       -2.02850       -0.34400
H         -1.23770       -2.81720        0.85160
