17
gdb 16037	3.55414	1.72616	1.42904	1.7915	76.28	-0.227	0.0204	0.2475	930.7094	0.141448	-326.648969	-326.641203	-326.640259	-326.680598	29.938
C         -0.05800        1.58370        0.01310
C          0.04700        0.07960        0.11950
N          1.20650       -0.72590       -0.30290
C          2.44940        0.02980        0.08990
C          2.07290        0.03900        1.58870
C          0.77090       -0.66740        1.18600
C          0.20000       -1.76530        1.89280
C         -0.27740       -2.67400        2.52140
H          0.78810        2.11340        0.45490
H         -0.13530        1.88520       -1.03720
H         -0.96440        1.92330        0.52430
H         -0.86220       -0.42910       -0.19520
H          3.32330       -0.58330       -0.13530
H          2.56030        0.99580       -0.41100
H          2.71740       -0.60360        2.18900
H          1.96400        1.00180        2.09600
H         -0.70110       -3.48100        3.06600
