18
gdb 11112	6.70251	1.00453	0.93619	5.0716	73.	-0.2477	0.0176	0.2653	1247.3534	0.154438	-343.980062	-343.971722	-343.970778	-344.013187	30.242
C          0.33480        1.37650        0.40700
C          0.06600       -0.11180        0.16330
C         -1.32810       -0.38720       -0.39970
C         -1.72370       -1.88750       -0.45560
C         -2.59540       -1.60120        0.80300
N         -2.47150       -0.15430        0.52760
C         -3.96660       -2.11530        0.81510
N         -5.04150       -2.54000        0.82510
H          1.34230        1.53650        0.80160
H          0.24230        1.95030       -0.52130
H         -0.37000        1.80350        1.12930
H          0.80490       -0.50680       -0.54630
H          0.20290       -0.67600        1.09620
H         -1.45200        0.16010       -1.34200
H         -2.32110       -2.15230       -1.32770
H         -0.92150       -2.61410       -0.32240
H         -2.10270       -1.93950        1.72440
H         -2.28300        0.42600        1.33840
