20
gdb 6225	3.51315	1.56985	1.48827	0.863	71.11	-0.2461	0.0872	0.3333	990.4145	0.175184	-386.164393	-386.155537	-386.154593	-386.197731	33.039
C         -0.08420        1.52970        0.06850
C          0.09080        0.02260        0.03790
C          0.78810       -0.54770       -1.19740
O          1.36030       -1.75080       -0.71710
C          1.62700       -1.58690        0.68080
C          1.03370       -2.78610        1.41680
C          3.12550       -1.42440        0.92290
O          0.97950       -0.37860        1.07790
H          0.88000        2.02970       -0.06280
H         -0.76050        1.85230       -0.72980
H         -0.50950        1.84750        1.02410
H         -0.88570       -0.47200        0.16760
H          0.10750       -0.78800       -2.01900
H          1.55830        0.14890       -1.56540
H          1.47760       -3.71470        1.04770
H          1.22470       -2.70560        2.49030
H         -0.04570       -2.82880        1.25170
H          3.50800       -0.58440        0.33790
H          3.31970       -1.22810        1.98100
H          3.65770       -2.33280        0.62860
