18
gdb 19017	4.47204	1.91588	1.69245	1.3697	71.31	-0.2585	0.0796	0.3381	820.5405	0.156416	-347.764975	-347.758658	-347.757714	-347.795154	26.056
O         -0.03900        1.43060        0.00190
C          0.02020        0.01000        0.01740
C          0.54590       -0.59190        1.35560
C         -0.71810       -1.30390        1.83090
C         -1.40030       -1.98640        0.59890
C         -2.78360       -1.71940        1.23820
C         -1.96640       -0.42850        1.48460
C         -1.40240       -0.53240        0.02960
H          0.86250        1.76650        0.01520
H          0.58990       -0.35640       -0.84960
H          1.38600       -1.28030        1.21350
H          0.86620        0.20420        2.03590
H         -0.69850       -1.83700        2.78380
H         -1.06160       -2.88790        0.08330
H         -3.63500       -1.64140        0.55590
H         -3.04090       -2.31650        2.11830
H         -2.28490        0.48390        1.98990
H         -2.04880       -0.28470       -0.81370
