17
gdb 3223	4.98408	2.61012	2.24975	0.3712	67.13	-0.2032	0.0901	0.2933	671.2039	0.148777	-272.514475	-272.508201	-272.507257	-272.543961	25.545
C         -0.00890        1.51840        0.03480
C          0.00880        0.01860        0.00890
C         -0.90060       -0.84870        0.83700
C          0.59500       -0.97060        1.00440
C          1.30410       -1.72770       -0.15210
C          0.37680       -2.22840       -1.22540
C          0.70130       -0.75980       -1.15540
H          0.97990        1.93300       -0.19610
H         -0.71530        1.92320       -0.70140
H         -0.30610        1.89270        1.01980
H         -1.38690       -0.31890        1.65180
H         -1.51490       -1.64050        0.42190
H          1.08020       -0.76400        1.95050
H          2.33090       -2.06270       -0.08040
H          0.88090       -2.74910       -2.03500
H         -0.60910       -2.62700       -1.01370
H          1.19560       -0.24300       -1.96900
