17
gdb 13828	4.44177	1.45078	1.12224	3.5931	71.86	-0.2405	-0.0211	0.2194	1042.9953	0.143551	-363.918415	-363.910488	-363.909543	-363.95098	29.183
N         -0.03330        1.33470        0.06290
C          0.04230       -0.03500        0.09070
O          1.11160       -0.61950        0.12940
C         -1.26940       -0.73980        0.09740
C         -1.36750       -2.07220        0.05180
C         -2.79480       -2.54520        0.02060
C         -3.59900       -1.26890        0.38280
C         -2.63850       -0.08250        0.10380
H          0.83120        1.83750       -0.05660
H         -0.89200        1.81340       -0.14490
H         -0.50740       -2.72940        0.00740
H         -3.04750       -2.92230       -0.98110
H         -2.98380       -3.37470        0.71110
H         -4.53970       -1.18810       -0.16690
H         -3.84810       -1.28830        1.44800
H         -2.73220        0.70620        0.85930
H         -2.84970        0.38760       -0.86820
