16
gdb 19952	3.93693	1.51001	1.1553	2.7888	66.13	-0.2416	-0.032	0.2096	1009.033	0.130902	-379.876213	-379.868724	-379.86778	-379.908719	27.298
O         -0.15260       -0.06610        0.30480
C         -0.12720        1.12370        0.23700
C         -1.16460        2.25420        0.32070
N         -0.03290        3.21000        0.42480
C          0.98890        2.18660        0.06670
C          2.19960        2.11040        0.95400
C          3.38950        1.34780        0.50210
N          3.44660        2.81460        0.60350
H         -1.77050        2.31830       -0.59470
H         -1.83650        2.24030        1.18560
H         -0.08420        3.99850       -0.20830
H          1.30580        2.21230       -0.99060
H          1.96910        2.14370        2.01570
H          3.99410        0.81140        1.22680
H          3.35510        0.88920       -0.48320
H          3.36440        3.22830       -0.32300
