17
gdb 2937	6.25773	1.8434	1.52188	1.0223	66.37	-0.2424	0.0214	0.2639	834.7936	0.14899	-309.719198	-309.712068	-309.711124	-309.750626	25.897
C         -0.13020        1.37140        0.01910
O          0.14690       -0.00720        0.06740
C          0.69980       -0.53060       -1.13410
C          1.26590       -1.93890       -0.84690
C          0.88370       -2.81390       -2.06590
C         -0.20520       -2.01020       -2.73540
C         -0.30670       -0.77950       -2.23890
H          0.76950        1.96020       -0.22310
H         -0.90910        1.62200       -0.71710
H         -0.48570        1.66540        1.01010
H          1.48650        0.16300       -1.48160
H          2.33900       -1.92700       -0.64490
H          0.76270       -2.30110        0.05400
H          1.73450       -2.95490       -2.74650
H          0.55340       -3.81940       -1.78100
H         -0.80270       -2.40690       -3.54980
H         -0.99400       -0.01640       -2.58590
