16
gdb 11254	5.06532	1.39767	1.22187	1.6287	72.66	-0.2464	0.0068	0.2532	1006.3004	0.129072	-346.571037	-346.563208	-346.562263	-346.603376	29.171
C          0.20660        1.64000       -0.05030
C         -0.05070        0.14620        0.13640
O          0.39300       -0.56180       -1.03050
C          1.21550       -1.67220       -0.66410
C          1.43490       -1.50750        0.82640
C          0.70830       -0.49170        1.27000
C          0.58430       -2.95560       -0.99950
C          0.08280       -4.01400       -1.26860
H          1.27840        1.83530       -0.14690
H         -0.29610        1.99690       -0.95340
H         -0.17940        2.20570        0.80430
H         -1.13510       -0.01350        0.26200
H          2.16000       -1.59730       -1.22480
H          2.07370       -2.16950        1.39510
H          0.63680       -0.14350        2.29280
H         -0.36550       -4.94590       -1.51070
