18
gdb 7958	3.34824	1.78476	1.34298	4.13	67.98	-0.2428	0.0613	0.3042	952.7323	0.155668	-381.183916	-381.176039	-381.175094	-381.215724	30.276
C         -0.36790        1.55580       -0.02880
C          0.08050        0.10000       -0.04190
N          1.15720       -0.16200       -0.99280
C          1.91750       -1.25400       -0.58620
O          2.74510       -1.84830       -1.23940
N          1.53560       -1.52490        0.72350
C          0.72070       -0.44210        1.27190
C          1.54870        0.57640        2.06320
H          0.46900        2.23160        0.16250
H         -0.80640        1.82680       -0.99460
H         -1.13430        1.71710        0.73630
H         -0.79230       -0.53470       -0.26450
H          0.99630       -0.07430       -1.98450
H          2.21690       -1.99480        1.30020
H         -0.06480       -0.84840        1.91820
H          2.31090        1.04080        1.43080
H          0.91650        1.36330        2.48550
H          2.05530        0.07810        2.89630
