16
gdb 8835	2.77274	1.54475	1.11479	3.2568	62.55	-0.2685	-0.0613	0.2071	1063.7167	0.126591	-420.900013	-420.890719	-420.889775	-420.934912	31.457
C          0.33270        1.69860       -0.18800
C         -0.04770        0.27140        0.20490
C          0.35990       -0.74140       -0.87630
O         -0.04380       -1.87190       -0.93070
C          0.61380       -0.16580        1.51620
O          1.63040        0.34740        1.92930
C         -0.04680       -1.28980        2.29090
O          0.71330       -1.67400        3.39660
H          1.41910        1.80180       -0.24400
H         -0.09780        1.96210       -1.15850
H         -0.02860        2.41570        0.55280
H         -1.13100        0.15190        0.32590
H          1.08480       -0.34570       -1.62120
H         -1.04960       -0.93210        2.58820
H         -0.21630       -2.13100        1.60170
H          1.44160       -1.03610        3.44510
