11
gdb 23727	5.83892	1.56771	1.23588	3.1688	57.11	-0.2316	-0.0755	0.1561	850.4044	0.073428	-438.734676	-438.728756	-438.727812	-438.764861	22.343
F          0.02330        0.00630        0.00310
C         -0.03370        1.33480        0.01050
C         -1.23260        1.97080        0.02980
N         -1.22340        3.33770        0.03650
C         -0.06200        4.11950        0.02480
O         -0.09940        5.33610        0.03150
C          1.14360        3.28300        0.00450
N          1.14610        1.98290       -0.00200
H         -2.18650        1.46150        0.04000
H         -2.09320        3.85320        0.05070
H          2.09450        3.80870       -0.00550
