22
gdb 16663	3.05029	1.95537	1.44352	0.296	80.35	-0.2572	0.0765	0.3337	972.4324	0.202126	-313.07458	-313.06665	-313.065705	-313.106339	31.971
C         -0.01330        1.56880       -0.09380
C          0.09930        0.04730       -0.00850
C          0.80190       -0.61510       -1.21960
C          1.23350       -1.99380       -0.71820
C          2.55450       -2.07330       -0.00060
C          1.27920       -1.92920        0.79630
C          0.81690       -0.53520        1.25450
C          1.93530        0.34260        1.83430
H          0.97040        2.04580       -0.15540
H         -0.57740        1.86540       -0.98480
H         -0.53220        1.98490        0.77680
H         -0.91880       -0.36400        0.01540
H          0.13100       -0.68320       -2.08140
H          1.66610       -0.01980       -1.54330
H          0.86580       -2.87570       -1.23090
H          3.05440       -3.03580        0.04090
H          3.23400       -1.23080       -0.08180
H          0.97370       -2.78240        1.39260
H          0.07190       -0.66570        2.04800
H          2.69580        0.59820        1.08960
H          1.53710        1.28200        2.23010
H          2.44160       -0.17700        2.65410
