13
gdb 12588	3.33078	2.33697	1.38533	1.1277	61.46	-0.2692	-0.0931	0.1761	821.4655	0.096166	-398.677209	-398.670031	-398.669087	-398.709215	25.159
C         -0.00800        1.46090        0.00320
N          0.00890        0.01200       -0.00030
C          0.10260       -0.77400       -1.14790
O          0.18180       -0.35860       -2.27840
C          0.08320       -2.20050       -0.67320
C         -0.01540       -2.20680        0.65580
C         -0.06740       -0.78590        1.14300
O         -0.15640       -0.38780        2.27900
H          0.91070        1.85860       -0.43630
H         -0.85960        1.83830       -0.56920
H         -0.08960        1.78360        1.04190
H          0.14380       -3.02930       -1.36390
H         -0.05700       -3.04180        1.34030
