14
gdb 4265	3.88599	1.97412	1.31979	3.7008	68.21	-0.2346	-0.025	0.2095	883.2197	0.108547	-378.761825	-378.754906	-378.753962	-378.793102	25.516
C          0.02740        1.48830       -0.04410
C         -0.06170       -0.00190        0.03000
N         -1.13360       -0.64990       -0.19710
C         -1.14020       -2.06450       -0.10730
N         -2.18620       -2.76500       -0.32470
C          0.13170       -2.68370        0.25210
C          1.19710       -1.91180        0.46960
O          1.14790       -0.54870        0.36900
H          0.77500        1.78590       -0.78630
H         -0.94500        1.89660       -0.31430
H          0.34720        1.89630        0.92010
H         -2.95810       -2.13660       -0.55920
H          0.19410       -3.76020        0.33740
H          2.18840       -2.25070        0.74030
