17
gdb 2017	5.35352	2.03795	1.95908	1.3849	64.86	-0.2638	0.0744	0.3382	733.8702	0.149398	-309.662433	-309.655798	-309.654854	-309.692957	25.419
O         -0.08980        1.41010        0.00980
C         -0.03490       -0.01030        0.00270
C         -1.44440       -0.52820        0.01280
C         -2.55410       -0.26550       -1.05180
C         -3.20990       -1.17520        0.02560
C         -1.90070       -2.01720        0.01150
C         -2.53570       -0.27300        1.09790
H          0.81160        1.74470        0.00300
H          0.48810       -0.38730       -0.89200
H          0.50380       -0.39560        0.88440
H         -2.92250        0.76030       -1.12520
H         -2.39650       -0.70920       -2.03960
H         -4.23240       -1.55410        0.03300
H         -1.69480       -2.59200       -0.89670
H         -1.67920       -2.59830        0.91190
H         -2.36120       -0.72360        2.07980
H         -2.90270        0.75220        1.18480
