17
gdb 11547	6.38517	1.04737	0.97114	2.3575	66.6	-0.2481	0.0643	0.3124	1232.361	0.141126	-401.024321	-401.015395	-401.014451	-401.05932	30.592
C         -0.15280        1.31770       -0.05130
N          0.27380       -0.06320        0.00450
C          0.69360       -0.64840        1.15710
O          0.72770       -0.12990        2.25000
O          1.08820       -1.92890        0.89240
C          1.49260       -2.67740        2.01990
C          0.52930       -3.67480        2.58850
C          1.72130       -4.13020        1.76590
H          0.51360        1.92310       -0.67710
H         -1.17290        1.40450       -0.44180
H         -0.12970        1.70850        0.96670
H          0.32680       -0.61260       -0.83640
H          2.14110       -2.12670        2.68970
H          0.53180       -3.83750        3.66020
H         -0.44560       -3.73760        2.11880
H          1.52100       -4.48940        0.76290
H          2.55380       -4.61420        2.26360
