19
gdb 3173	5.05436	2.17854	1.84194	0.217	70.68	-0.2584	0.093	0.3514	771.873	0.173923	-273.789697	-273.783023	-273.782079	-273.820672	26.286
C          0.07130        1.52420       -0.00300
C          1.32260        0.67900       -0.00740
C         -0.03330        0.02040        0.00340
C         -0.51570       -0.74080        1.25030
C         -1.58260       -1.71820        0.72100
C         -1.07010       -2.07480       -0.68380
C         -0.56830       -0.72510       -1.23140
H         -0.17930        2.06150        0.90650
H         -0.19170        2.05040       -0.91590
H          1.90790        0.63720       -0.92100
H          1.91570        0.64160        0.90150
H          0.31520       -1.30600        1.69130
H         -0.89910       -0.07490        2.02960
H         -1.72260       -2.58950        1.36720
H         -2.55200       -1.21030        0.64170
H         -0.23510       -2.78200       -0.60290
H         -1.83000       -2.53840       -1.31940
H         -1.40740       -0.17120       -1.67140
H          0.18630       -0.83900       -2.01580
