15
gdb 5334	6.39258	1.63779	1.33748	2.8831	69.46	-0.1799	0.0361	0.216	890.9275	0.121846	-358.843125	-358.836377	-358.835433	-358.873894	25.724
N          0.12150        1.38340        0.27160
C         -0.03800        0.02320        0.00580
C         -1.19950       -0.73550        0.06320
N         -0.73200       -2.03560       -0.08000
C         -0.86550       -3.37420       -0.70420
C          0.70520       -3.37700       -0.84240
C          0.59490       -1.96040       -0.31090
N          1.08470       -0.74370       -0.27470
H          0.98080        1.73080       -0.13400
H         -0.66520        1.94980       -0.01500
H         -2.21050       -0.47900        0.32780
H         -1.31340       -4.12550       -0.04910
H         -1.38940       -3.35330       -1.66380
H          1.23130       -4.09870       -0.21290
H          1.06310       -3.46580       -1.87070
