17
gdb 12029	3.76615	1.77065	1.56308	1.7884	73.89	-0.2354	0.042	0.2774	882.0598	0.140906	-326.64293	-326.635231	-326.634287	-326.674327	30.1
C         -0.13570        1.60160        0.01280
C          0.02770        0.08130       -0.00230
C          1.12000       -0.54900       -0.93830
C          1.75330       -1.11920        0.32510
C          2.08810       -0.05020        1.27940
N          0.69050       -0.52970        1.23690
C         -1.27250       -0.55400       -0.18190
C         -2.34770       -1.06220       -0.35500
H          0.82530        2.11600        0.08660
H         -0.62520        1.93140       -0.90810
H         -0.76010        1.90180        0.85910
H          0.70580       -1.29880       -1.61140
H          1.73420        0.15160       -1.51220
H          2.09280       -2.14230        0.44640
H          2.57910       -0.33150        2.20590
H          2.34580        0.94260        0.92140
H         -3.29690       -1.51690       -0.49610
