14
gdb 5551	3.47804	2.01692	1.3242	2.1639	60.22	-0.1839	0.0372	0.2211	878.1124	0.107824	-415.876825	-415.869137	-415.868193	-415.909213	27.487
C          0.46760        0.83440        0.33470
O         -0.55950        0.59990       -0.63100
C         -1.45190       -0.35550       -0.28720
C         -1.37790       -1.61590        0.25270
O         -0.25560       -2.26610        0.66020
N         -2.61830       -2.17570        0.35170
C         -3.45540       -1.28040       -0.13320
N         -2.80010       -0.15540       -0.52720
H          1.10970        1.61020       -0.08600
H          0.03840        1.18200        1.28250
H          1.05160       -0.07260        0.51730
H         -0.55470       -3.10540        1.02990
H         -4.52330       -1.39710       -0.22800
H         -3.18930        0.67680       -0.93740
