16
gdb 11435	4.45349	1.36121	1.22722	0.8968	60.38	-0.2537	-0.0331	0.2206	987.1386	0.13013	-420.892079	-420.884429	-420.883484	-420.924629	27.956
O          0.03930        1.23300        0.43840
C         -0.03230       -0.16460        0.27620
C         -1.37800       -0.57760       -0.32100
C         -1.61380       -2.08780       -0.33070
C         -2.40280       -2.33630        0.95670
O         -2.63470       -3.39220        1.47860
C         -2.84260       -0.96220        1.46760
O         -2.44010       -0.01860        0.49170
H         -0.80730        1.49530        0.82200
H          0.78030       -0.46200       -0.39620
H          0.12450       -0.69550        1.23290
H         -1.48840       -0.11400       -1.30470
H         -2.23430       -2.39780       -1.17850
H         -0.70260       -2.69090       -0.34690
H         -3.92960       -0.91820        1.59280
H         -2.38110       -0.77810        2.44980
