13
gdb 21542	3.46079	2.04277	1.29021	1.0326	56.58	-0.1939	0.0378	0.2318	863.6968	0.096046	-431.923948	-431.915761	-431.914816	-431.956241	29.073
N          0.17240        1.41730       -0.07330
C         -0.01080        0.02750       -0.03920
C         -1.14700       -0.75400       -0.09500
O         -2.43510       -0.29280       -0.11270
C         -0.66470       -2.07960       -0.09400
O         -1.46460       -3.17260       -0.13210
N          0.65340       -2.14540       -0.03610
N          1.03920       -0.83780        0.01360
H          0.46640        1.79230        0.82380
H         -0.69550        1.87290       -0.33150
H         -3.01260       -1.04320       -0.28630
H         -0.89010       -3.94800       -0.12610
H          2.00850       -0.60520       -0.10940
