17
gdb 1345	4.20885	2.3212	2.19512	1.2871	64.48	-0.2376	0.0282	0.2658	704.9867	0.148286	-309.733988	-309.726958	-309.726014	-309.76457	27.395
C         -0.09320        1.54200       -0.00820
C          0.00990        0.01390       -0.01190
O         -1.29180       -0.56860       -0.03000
C          0.90910       -0.47640       -1.19170
C          2.23020       -0.78500       -0.53520
C          2.13400       -0.79620        0.79370
C          0.73410       -0.49790        1.26300
H          0.90020        1.99760        0.05830
H         -0.56340        1.90420       -0.93110
H         -0.69240        1.88230        0.84160
H         -1.77710       -0.18630       -0.76890
H          0.46580       -1.37720       -1.63710
H          0.98890        0.26920       -1.99290
H          3.13050       -0.99950       -1.10080
H          2.94430       -1.02070        1.47870
H          0.69510        0.23250        2.07960
H          0.22930       -1.40240        1.62540
