20
gdb 7820	3.47851	1.64185	1.20098	1.7742	71.63	-0.2567	0.0924	0.3492	1050.499	0.177643	-386.159636	-386.151556	-386.150612	-386.191656	31.051
C         -0.01850        1.53640        0.09850
C          0.02740        0.02080        0.00190
C          0.72120       -0.49640       -1.26550
C          0.89950       -2.01850       -1.18490
C          1.74830       -2.59460       -2.30570
O          1.53390       -2.35620        0.04960
C          0.82240       -1.85850        1.14950
O          0.72330       -0.46080        1.15270
H          0.99480        1.94940        0.08810
H         -0.57520        1.95810       -0.74400
H         -0.50470        1.84480        1.02800
H         -1.00250       -0.38040        0.02570
H          0.13680       -0.22950       -2.15360
H          1.70730       -0.02430       -1.35190
H         -0.10040       -2.48950       -1.20180
H          2.74670       -2.14690       -2.29590
H          1.85640       -3.67590       -2.18500
H          1.28680       -2.39570       -3.27780
H         -0.19190       -2.30470        1.17070
H          1.37680       -2.14340        2.04630
