11
gdb 4237	4.52719	2.16775	2.04909	1.23	39.65	-0.2713	0.0825	0.3538	638.1165	0.075851	-470.915515	-470.909362	-470.908418	-470.94603	21.872
F         -0.23290        0.07370       -0.13020
C         -0.07300        1.40160        0.02510
F          1.24040        1.63140        0.16740
F         -0.46030        1.99540       -1.11220
C         -0.85150        1.91690        1.20460
C         -2.15600        1.29360        1.53040
N         -0.98880        1.08530        2.40140
H         -0.68080        2.97440        1.38440
H         -2.94370        1.90840        1.95380
H         -2.49230        0.47190        0.90620
H         -0.59280        0.16450        2.22520
