14
gdb 4809	6.16829	1.29404	1.12536	1.8164	59.9	-0.2158	0.0046	0.2204	1016.304	0.108481	-415.879777	-415.872294	-415.87135	-415.912048	27.022
N          0.26090        1.41070       -0.16300
C         -0.08670        0.01770        0.14340
C          0.70590       -0.47840        1.30570
N          0.27890       -1.01830        2.40820
C          1.42800       -1.31190        3.11530
O          1.37790       -1.89030        4.32880
C          2.51830       -0.93110        2.40560
O          2.04840       -0.39270        1.22430
H          1.24360        1.46220       -0.41480
H         -0.26050        1.71300       -0.98030
H         -1.14000       -0.03770        0.42930
H          0.06000       -0.67920       -0.70130
H          0.44370       -2.01120        4.53740
H          3.58120       -0.95090        2.55530
