20
gdb 9920	4.89398	0.86253	0.8251	1.7889	71.68	-0.253	0.0745	0.3275	1433.2885	0.175151	-386.118906	-386.10943	-386.108486	-386.153483	34.498
O         -0.02690        1.42210       -0.22770
C          0.03430        0.03170        0.05330
C         -1.37310       -0.53500       -0.07340
C         -1.44260       -2.03680        0.22770
C         -2.84260       -2.60750        0.09680
O         -3.78080       -2.06770        0.99510
C         -3.35660       -3.04770       -1.25320
C         -3.03620       -4.06650       -0.17350
H          0.85870        1.78620       -0.13950
H          0.70850       -0.48760       -0.64810
H          0.41890       -0.15390        1.06970
H         -2.02210        0.01740        0.61710
H         -1.74030       -0.33460       -1.08740
H         -0.77350       -2.58170       -0.44990
H         -1.08450       -2.22610        1.24810
H         -3.99440       -1.17620        0.69950
H         -4.40450       -2.86760       -1.46610
H         -2.69820       -2.97880       -2.11280
H         -2.15890       -4.69280       -0.29470
H         -3.87370       -4.54210        0.32320
