24
gdb 12559	2.81181	1.70502	1.18139	0.0944	84.53	-0.2948	0.0802	0.375	1124.7006	0.226425	-314.296451	-314.287991	-314.287047	-314.328909	33.413
C          0.06240        1.62120        0.01690
C         -0.00990        0.08670        0.00920
C          0.63850       -0.47160       -1.27660
C          0.12070       -1.83200       -1.78220
C         -0.15200       -2.91510       -0.71900
C          0.82050       -2.95390        0.47200
C          0.46070       -1.95850        1.58760
C          0.66870       -0.46920        1.27770
H          1.10450        1.96280       -0.01520
H         -0.45140        2.04800       -0.85090
H         -0.39500        2.04030        0.91940
H         -1.07270       -0.19710        0.02440
H          0.50940        0.25290       -2.09000
H          1.72240       -0.52960       -1.10930
H         -0.80420       -1.67420       -2.35110
H          0.84980       -2.21610       -2.50670
H         -1.16730       -2.79050       -0.32060
H         -0.15410       -3.88850       -1.22320
H          0.80410       -3.96170        0.90410
H          1.85190       -2.79010        0.13110
H         -0.59080       -2.12350        1.86240
H          1.04500       -2.20010        2.48440
H          1.74640       -0.26390        1.19850
H          0.31950        0.10470        2.14600
