22
gdb 8482	2.88242	1.83958	1.43418	0.3167	82.66	-0.2341	0.084	0.3181	1014.2781	0.199299	-313.060515	-313.051594	-313.05065	-313.093035	34.527
C         -0.14540        1.56170        0.03870
C          0.06490        0.05210        0.00490
C          1.16920       -0.54990       -0.93050
C          1.77990       -1.27810        0.27610
C          2.34900       -2.66780        0.23900
C          2.18170       -0.24710        1.29850
C          0.72930       -0.64780        1.20630
C         -0.02560       -1.22950        2.36840
H          0.78650        2.09630        0.24960
H         -0.52480        1.92630       -0.92250
H         -0.87190        1.84340        0.80940
H         -0.89240       -0.43720       -0.20910
H          0.75940       -1.22450       -1.68720
H          1.82670        0.17120       -1.43050
H          3.31110       -2.69060       -0.28830
H          2.52170       -3.05600        1.24860
H          1.67630       -3.36400       -0.27590
H          2.70370       -0.63750        2.16790
H          2.52420        0.73960        0.99250
H         -0.40780       -0.44360        3.03210
H         -0.88500       -1.82180        2.03180
H          0.61240       -1.88260        2.97360
