16
gdb 20177	3.54109	2.71568	2.01814	1.7485	67.43	-0.2202	0.0064	0.2265	711.2622	0.133092	-346.567458	-346.561713	-346.560769	-346.596981	23.891
C          0.04550        1.50620        0.17900
C          1.35780        2.19930       -0.08920
C          2.51370        1.53960       -0.15380
C          2.50770        0.05300        0.04980
O          2.01160       -0.32360        1.38880
C          0.88430       -0.96300        0.79530
C          0.08600       -0.00540       -0.05340
C          1.32450       -0.67590       -0.61020
H         -0.27030        1.71480        1.21080
H         -0.72770        1.95140       -0.46020
H          1.32450        3.27700       -0.22610
H          3.45320        2.04970       -0.33990
H          3.48050       -0.41400       -0.11880
H          0.48860       -1.84680        1.28220
H         -0.84060       -0.44000       -0.42020
H          1.36290       -1.27430       -1.50990
