20
gdb 18479	2.94515	1.90951	1.46304	1.0611	74.94	-0.2371	0.0802	0.3173	957.7116	0.17681	-348.963836	-348.95556	-348.954616	-348.996261	31.212
C          0.17030        1.10300       -0.23280
O         -0.44150        0.02500        0.44550
C          0.42830       -0.62330        1.32310
C          0.09460       -1.96270        1.86340
C         -0.56820       -2.83650        0.79030
C          0.71960       -2.72020       -0.09190
C          0.60010       -2.29450       -1.55110
C          1.33560       -1.76270        0.94410
H          1.01030        0.76860       -0.85820
H         -0.59130        1.55860       -0.87010
H          0.54350        1.86180        0.47210
H          0.87900        0.05270        2.05440
H          0.05390       -2.15210        2.92990
H         -0.76670       -3.85720        1.12240
H         -1.48090       -2.41760        0.35880
H          1.26060       -3.67100       -0.04030
H         -0.01650       -1.39890       -1.65270
H          1.58590       -2.08530       -1.98250
H          0.14130       -3.08950       -2.15030
H          2.38720       -1.74850        1.21250
