15
gdb 1702	4.4388	2.15433	1.8589	1.4015	62.51	-0.2527	0.0414	0.2941	734.2967	0.123569	-308.462063	-308.454771	-308.453827	-308.493184	26.708
C         -0.09960        1.56040       -0.00410
C         -0.01810        0.02870       -0.00050
C          1.18510       -0.52360       -0.82540
O          1.94360       -0.77750        0.37010
C          0.79520       -0.53960        1.20310
C         -1.30930       -0.58450       -0.25360
C         -2.37860       -1.09310       -0.46320
H          0.88900        1.98810        0.18930
H         -0.45530        1.92720       -0.97130
H         -0.78960        1.91340        0.76780
H          0.96160       -1.44370       -1.37850
H          1.68010        0.19540       -1.48840
H          1.00700        0.16760        2.01320
H          0.38530       -1.46740        1.61980
H         -3.32150       -1.54520       -0.64840
