14
gdb 2974	3.62431	2.49777	1.73241	4.0639	57.11	-0.2826	0.0301	0.3127	735.4776	0.112773	-324.568345	-324.561138	-324.560194	-324.599765	25.223
C         -0.16320        1.52290        0.22520
C          0.04040        0.01280       -0.01930
C          0.82170       -0.58940        1.06530
N          1.44890       -1.06250        1.91260
C         -1.30280       -0.68560       -0.20930
C         -1.63170       -2.00890        0.33000
O         -2.12640       -0.80930        0.94090
H          0.79530        2.03350        0.34060
H         -0.69380        1.96530       -0.62270
H         -0.75710        1.67900        1.12840
H          0.61620       -0.12470       -0.94440
H         -1.82590       -0.34690       -1.10580
H         -2.38120       -2.61750       -0.17270
H         -0.89180       -2.55150        0.91370
