16
gdb 7537	5.04196	1.12835	1.05147	3.8062	61.47	-0.2395	-0.0181	0.2214	1106.9345	0.127165	-420.858369	-420.84969	-420.848745	-420.89219	31.19
O          0.03950        1.31220        0.22420
C         -0.00760       -0.08150        0.07000
C         -0.63910       -0.92470        1.15970
C         -1.40040       -0.61740       -0.11940
O         -2.43510        0.31830       -0.05340
C         -1.68830       -1.71460       -1.12290
C         -2.87960       -2.56050       -0.71140
O         -2.88100       -3.76490       -0.69710
H          0.54880        1.51980        1.01420
H          0.81160       -0.50130       -0.51120
H         -0.24950       -1.92370        1.32490
H         -0.97970       -0.40640        2.05010
H         -2.00940        1.18050        0.06190
H         -1.92620       -1.24360       -2.08690
H         -0.82610       -2.37300       -1.25870
H         -3.77790       -1.97650       -0.41730
