16
gdb 19598	4.37808	1.98049	1.84839	1.8507	62.5	-0.2537	0.0808	0.3345	763.0372	0.132702	-383.67727	-383.671399	-383.670454	-383.706834	24.932
O          0.08530        1.45250       -0.04140
C          0.11210        0.05510       -0.09270
C          0.17930       -0.63210        1.29970
O         -1.25070       -0.25630        1.43950
C         -1.28840       -0.61250       -0.00180
C         -1.05190       -2.12680        0.03810
C          0.29930       -2.67950       -0.34500
C          0.08880       -2.14200        1.04950
H         -0.53840        1.67050        0.66520
H          0.80980       -0.21510       -0.88360
H          0.80810       -0.25920        2.10790
H         -2.16040       -0.21960       -0.52430
H         -1.90660       -2.78720        0.11830
H          0.34960       -3.76190       -0.41800
H          0.94000       -2.17940       -1.06000
H          0.10140       -2.81400        1.89890
