14
gdb 21193	7.14499	1.33563	1.13647	2.9499	61.22	-0.2138	0.0293	0.2431	1006.971	0.108747	-412.049408	-412.041701	-412.040757	-412.0815	27.571
C         -0.05090        1.42480        0.12330
N         -0.06060       -0.01260       -0.08490
C         -1.19240       -0.74640       -0.04270
N         -1.28080       -2.05230       -0.00500
C         -2.64270       -2.22390       -0.02810
N         -3.19420       -3.48050       -0.06780
N         -3.37000       -1.12910       -0.05840
O         -2.36150       -0.10610       -0.07370
H          0.91550        1.81880       -0.19700
H         -0.83140        1.88670       -0.48440
H         -0.21870        1.70550        1.17140
H          0.77920       -0.53550        0.10140
H         -2.61590       -4.18990        0.35570
H         -4.16330       -3.52240        0.21020
