17
gdb 2088	4.89474	2.28504	1.65933	1.3615	66.71	-0.2335	0.0285	0.2619	776.268	0.149503	-309.731536	-309.724731	-309.723786	-309.761997	25.76
C         -0.01860        1.53050        0.04890
C         -0.00340        0.02950       -0.02140
C         -0.05290       -0.64880       -1.16870
C          0.00920       -2.15050       -1.23610
O          0.36980       -2.75690       -0.01040
C         -0.31680       -2.18960        1.09060
C          0.07410       -0.72380        1.28770
H          0.87500        1.90970        0.56210
H         -0.05510        1.98250       -0.94610
H         -0.88160        1.89290        0.62250
H         -0.13900       -0.12780       -2.11980
H         -0.95920       -2.55040       -1.59350
H          0.76540       -2.46860       -1.96440
H         -1.40730       -2.26580        0.94220
H         -0.05300       -2.79540        1.96220
H          1.08980       -0.65490        1.70200
H         -0.59060       -0.26180        2.03030
