20
gdb 11354	4.98978	1.1878	1.04937	1.7281	78.48	-0.2248	0.0229	0.2477	1201.3854	0.176428	-349.02135	-349.012566	-349.011622	-349.055125	31.904
C         -0.35280        1.49530       -0.08490
C          0.14220        0.04340        0.04650
C          0.85010       -0.46270       -1.17380
C          2.11880       -0.84210       -1.30490
C          2.40180       -1.30040       -2.70960
C          2.91640       -2.73570       -2.82440
O          1.14040       -1.18140       -3.38190
C          0.16570       -0.62360       -2.51090
H          0.48200        2.17610       -0.27780
H         -1.06890        1.60400       -0.90530
H         -0.84980        1.81790        0.83490
H          0.81100       -0.03820        0.91010
H         -0.72010       -0.60450        0.25850
H          2.87160       -0.84250       -0.52540
H          3.12710       -0.63040       -3.20390
H          2.23510       -3.42770       -2.32060
H          2.99220       -3.02440       -3.87670
H          3.90910       -2.82730       -2.37070
H         -0.71000       -1.29040       -2.45090
H         -0.19380        0.33770       -2.91360
