18
gdb 12260	3.8164	1.42939	1.15579	3.3705	68.41	-0.2453	-0.0277	0.2176	1063.6436	0.152822	-384.95084	-384.942322	-384.941378	-384.984099	30.927
C          0.20540        1.62630        0.06120
C          0.10540        0.10800        0.02970
C          0.57760       -0.70730       -1.22390
C          1.31540       -1.72800       -0.29950
C          2.77470       -2.11370       -0.54550
O          3.31730       -2.76590        0.58390
C          1.12860       -0.70890        0.82800
O          1.73550       -0.51880        1.85020
H          1.20610        1.96020       -0.23130
H         -0.51790        2.08370       -0.62090
H          0.01010        2.00410        1.06910
H         -0.90200       -0.21710        0.32090
H         -0.20660       -1.10900       -1.86600
H          1.27960       -0.13230       -1.83520
H          0.72090       -2.62980       -0.11670
H          2.85890       -2.80810       -1.38830
H          3.34900       -1.20940       -0.80900
H          3.19010       -2.16930        1.33400
