16
gdb 20936	7.46798	1.09671	0.97249	4.1136	67.92	-0.2014	0.0077	0.2091	1174.7414	0.13236	-376.097103	-376.089399	-376.088455	-376.129691	27.802
C         -0.06640        1.54740        0.00810
C         -0.04080        0.02700        0.12020
N         -1.34600       -0.53470       -0.19110
C         -1.52440       -1.90070       -0.09040
C         -0.61070       -2.93420       -0.15320
N         -1.39350       -4.04550       -0.04650
N         -2.68480       -3.73740        0.08230
N         -2.77300       -2.43390        0.05840
H          0.92230        1.96490        0.21670
H         -0.37160        1.85750       -0.99530
H         -0.76940        1.98230        0.72770
H          0.68470       -0.37960       -0.59640
H          0.30750       -0.27300        1.12390
H         -2.12550       -0.02910        0.20870
H          0.45800       -2.97910       -0.26030
H         -1.11540       -5.01330       -0.04790
