16
gdb 1245	7.00683	1.14697	1.04479	4.0705	61.71	-0.284	0.0397	0.3237	1088.6368	0.135535	-325.799404	-325.791167	-325.790223	-325.832138	28.936
C          0.02000        1.55670        0.06770
C         -0.00690        0.03020        0.02570
O          0.69130       -0.53730        1.13220
C         -1.43710       -0.52020       -0.06650
C         -1.44740       -2.05930       -0.12880
C         -2.79680       -2.61600       -0.10890
N         -3.87240       -3.03860       -0.09040
H          1.05000        1.91450        0.14450
H         -0.43260        1.98740       -0.83080
H         -0.53990        1.93140        0.93400
H          0.55740       -0.31310       -0.85130
H          0.32750       -0.15260        1.93790
H         -2.01180       -0.18730        0.80730
H         -1.93870       -0.10750       -0.94840
H         -0.93990       -2.40560       -1.03690
H         -0.87880       -2.45610        0.71800
