15
gdb 5831	2.96384	1.72165	1.41942	3.3339	62.29	-0.281	-0.0901	0.1909	921.2934	0.115012	-399.82246	-399.813279	-399.812335	-399.856441	32.184
C          0.04990        1.48060        0.14140
C          0.03310       -0.05640        0.13320
C          0.74630       -0.64930        1.34460
O         -1.29570       -0.56200        0.14180
C          0.72130       -0.53560       -1.15920
O          1.86270       -0.89650       -1.26250
C         -0.16730       -0.50520       -2.35120
N         -0.85180       -0.43060       -3.28050
H          1.07320        1.86420        0.17880
H         -0.43410        1.88880       -0.75340
H         -0.49420        1.83620        1.02090
H          0.30820       -0.24410        2.25950
H          0.62900       -1.73550        1.35330
H          1.81150       -0.41470        1.31550
H         -1.83980       -0.04250       -0.46150
