13
gdb 12659	3.4724	2.00574	1.31733	4.0811	55.21	-0.2458	-0.076	0.1697	853.1298	0.096089	-435.778535	-435.771404	-435.77046	-435.810086	25.89
O          0.20710        1.28540        0.44930
C         -0.00480       -0.03370        0.04480
C         -1.49080       -0.40650       -0.14700
N         -1.43170       -1.41280       -1.20500
C         -0.30250       -1.41590       -1.97770
O         -0.06710       -2.08500       -2.95430
C          0.59460       -0.34950       -1.31760
O          1.54210        0.21070       -1.79930
H          0.97890        1.59890       -0.04460
H          0.43850       -0.75400        0.75640
H         -1.94830       -0.81500        0.75740
H         -2.04920        0.48710       -0.45020
H         -2.22160       -1.98830       -1.45400
