17
gdb 17725	4.48832	2.54377	2.05572	1.541	71.33	-0.2163	0.0838	0.3001	706.0724	0.145269	-326.618617	-326.613185	-326.61224	-326.647687	23.444
C         -0.08570        1.58440        0.00970
C          1.45180        1.28290       -0.03250
C          1.30670        0.12820        0.98900
N          1.89360       -0.97710        0.14540
C          0.86920       -2.06870        0.28650
C         -0.55610       -1.35180        0.28730
C          0.00510        0.04220        0.14050
C          1.22590       -0.03010       -0.82180
H         -0.45230        2.13580        0.88060
H         -0.53200        1.97940       -0.90770
H          2.27630        1.98820       -0.13090
H          1.38830        0.15720        2.07760
H          0.97240       -2.76950       -0.54660
H          1.05100       -2.61540        1.21580
H         -1.18310       -1.67360       -0.54870
H         -1.10430       -1.51910        1.21860
H          1.21080       -0.19070       -1.90180
