20
gdb 7274	3.89915	1.18791	0.97987	4.2975	76.65	-0.2345	0.0264	0.261	1222.1034	0.175509	-345.18474	-345.175102	-345.174158	-345.219444	34.561
C          0.03090        1.52900       -0.00570
C          0.00070       -0.00500        0.02170
C          0.73590       -0.49570        1.27850
N         -1.39060       -0.50430       -0.01660
C         -2.18290        0.05410       -1.11140
C         -1.44400       -1.96280       -0.05330
C         -2.80340       -2.47330        0.16440
N         -3.86620       -2.89480        0.32900
H          1.05800        1.87510        0.13820
H         -0.32020        1.94130       -0.95350
H         -0.58530        1.93850        0.80160
H          0.55330       -0.36890       -0.86880
H          0.15940       -0.24730        2.17520
H          0.92730       -1.57170        1.27870
H          1.71050       -0.00480        1.34810
H         -1.72900       -0.12140       -2.10520
H         -3.17480       -0.40390       -1.10720
H         -2.31920        1.12720       -0.97800
H         -1.07320       -2.38670       -1.00810
H         -0.81830       -2.37830        0.73870
