10
gdb 3866	6.34914	2.86364	1.974	6.5881	51.77	-0.2477	-0.0749	0.1728	582.1207	0.067209	-351.628383	-351.622585	-351.621641	-351.657887	20.617
N         -0.00030        1.36510        0.08030
C         -0.01990        0.01630        0.02440
C         -1.20340       -0.74740        0.01300
N         -1.14330       -2.05700       -0.01450
N          0.05910       -2.65680       -0.03040
N          1.15810       -1.94610       -0.02550
N          1.15590       -0.62170       -0.00150
H          0.88940        1.82760       -0.01770
H         -0.83900        1.90260       -0.05050
H         -2.19210       -0.29320        0.02560
