20
gdb 12698	3.21814	1.70005	1.32381	2.6744	69.87	-0.2557	0.067	0.3227	982.6495	0.17721	-386.149077	-386.140285	-386.13934	-386.182003	33.11
C          0.41330        1.66170        0.03530
C          0.07890        0.16600        0.00390
C          0.68710       -0.56440       -1.20730
O          0.51160        0.19440       -2.39110
C          2.16690       -0.81080       -0.81700
C          2.18300       -0.84890        0.73350
C          0.71210       -0.61990        1.16660
O          0.56320        0.08350        2.38760
H          1.49280        1.84300        0.02920
H         -0.01050        2.15910       -0.83950
H          0.00670        2.11780        0.94030
H         -1.01000        0.05150        0.01260
H          0.17830       -1.53700       -1.31150
H          0.89200       -0.30170       -3.12220
H          2.56030       -1.72610       -1.26970
H          2.76690        0.02130       -1.19700
H          2.58320       -1.78600        1.13240
H          2.79300       -0.03750        1.14150
H          0.20420       -1.59600        1.23680
H          0.95830       -0.44610        3.08670
