20
gdb 16018	3.671	1.78761	1.44824	1.2883	74.75	-0.2432	0.085	0.3282	937.0436	0.179542	-349.003359	-348.996181	-348.995237	-349.034393	28.981
C          0.01480        1.52660       -0.01040
C          1.32050        0.76390       -0.01440
C          0.00720        0.02300        0.01950
C         -0.39360       -0.71900        1.28450
C          0.07000       -2.18220        1.19460
C         -0.39580       -2.79900       -0.12730
O          0.05760       -2.05480       -1.24570
C         -0.42830       -0.72210       -1.22780
H         -0.26780        2.05600        0.89390
H         -0.28760        2.02510       -0.92630
H          1.89940        0.74400       -0.93190
H          1.92240        0.78080        0.88850
H          0.02240       -0.22750        2.17090
H         -1.48780       -0.69120        1.39150
H          1.16450       -2.22680        1.23850
H         -0.31880       -2.76970        2.03430
H         -0.00160       -3.81150       -0.25460
H         -1.49910       -2.86200       -0.13970
H         -1.53200       -0.72710       -1.29020
H         -0.04280       -0.24080       -2.13200
