15
gdb 15104	5.57734	0.83124	0.76347	1.2496	76.35	-0.2356	0.0294	0.265	1448.857	0.117505	-325.428954	-325.420425	-325.419481	-325.464313	29.75
C         -0.01450       -0.88580       -0.93780
C          0.07850        0.06580       -0.21200
C          0.17780        1.22560        0.67660
C          1.40960        1.99690        0.50000
C          2.42620        2.62720        0.35800
C          3.62410        3.40030        0.18930
C          4.55760        3.08950       -0.93530
N          3.76150        4.31970       -0.96850
H         -0.09300       -1.72780       -1.57990
H         -0.69310        1.87740        0.51980
H          0.10800        0.88930        1.72050
H          4.04860        3.80540        1.10440
H          5.62420        3.23630       -0.79090
H          4.28840        2.26760       -1.59180
H          2.96030        4.19040       -1.58220
