17
gdb 3356	4.45651	2.92616	2.27501	1.5043	62.84	-0.2478	0.0809	0.3287	648.7122	0.151225	-309.71344	-309.707473	-309.706529	-309.743542	23.05
C         -0.05860        1.45690       -0.36190
C          1.36810        1.65940        0.22040
C          1.42720        0.15810        0.62150
C          1.24240       -0.13850        2.11210
O         -0.13750        0.08700        2.38130
C         -0.84360       -0.43480        1.26040
C         -0.01580       -0.04680        0.03240
H         -0.84460        2.02880        0.13910
H         -0.13750        1.63490       -1.43690
H          2.11900        1.95500       -0.51610
H          1.42540        2.35120        1.06540
H          2.24050       -0.41750        0.17640
H          1.51140       -1.18560        2.33220
H          1.82150        0.51530        2.77130
H         -0.92860       -1.53220        1.33590
H         -1.85030       -0.00630        1.27220
H         -0.12900       -0.75390       -0.79100
