8
gdb 23859	3.39755	2.48443	1.43506	0.8374	46.19	-0.2891	-0.1306	0.1584	720.7683	0.033974	-490.580575	-490.574503	-490.573559	-490.611321	21.297
F          0.03350        0.04770        0.00360
C         -0.01350        1.35700        0.01070
N         -1.17490        1.89530        0.02810
O         -1.23030        3.25210        0.03560
N         -0.03050        4.06290        0.02460
N          1.06670        3.51900        0.00800
C          1.24990        2.08730       -0.00160
O          2.34960        1.61060       -0.01810
