9
gdb 899	7.22498	2.34498	1.77037	3.6671	40.61	-0.2319	0.0286	0.2605	618.2559	0.054586	-416.367317	-416.36152	-416.360576	-416.397228	20.117
O          0.06160        1.34120        0.00770
C         -0.05830        0.01480        0.00130
C         -1.11390       -0.79520        0.00320
O         -0.63170       -2.11080       -0.00590
C          0.71850       -2.06410       -0.01370
O          1.47160       -2.98150       -0.02250
O          1.09690       -0.72870       -0.00900
H          1.00010        1.56620        0.00020
H         -2.17560       -0.64530        0.01010
