14
gdb 23925	3.61457	1.66054	1.52635	1.3451	49.89	-0.2395	0.0774	0.3169	840.5554	0.104952	-510.208554	-510.201404	-510.20046	-510.240575	25.999
F         -0.33710       -0.03960        0.17680
C         -0.09260        1.28170        0.10480
F          1.24080        1.43820        0.18260
F         -0.48290        1.69920       -1.10800
C         -0.79020        2.06050        1.20720
C         -2.25730        1.61960        1.45000
C         -1.71840        0.86250        2.69180
N         -0.45160        1.62990        2.57420
H         -0.60570        3.12180        1.00500
H         -2.90520        2.46010        1.69890
H         -2.72120        1.02180        0.66600
H         -2.24350        1.02320        3.63810
H         -1.61730       -0.21460        2.51780
H          0.41230        1.10720        2.67000
