20
gdb 10504	2.59255	1.56938	1.15124	2.6402	75.16	-0.2448	-0.0205	0.2242	1107.5215	0.17499	-349.007403	-348.998211	-348.997267	-349.042286	33.097
C          0.37930        0.14160        1.70310
C          0.03350        0.01270        0.21450
C         -1.28670       -0.69880       -0.06090
C         -2.53420       -0.01070        0.48480
C         -2.74720        1.35440       -0.13580
O         -2.88390        2.37990        0.48090
C         -1.42240       -1.44460       -1.37070
C         -1.27650       -2.20920       -0.07750
H          1.36780        0.59240        1.83260
H         -0.33980        0.77440        2.23210
H          0.38910       -0.83850        2.19140
H          0.01350        1.01200       -0.24100
H          0.83380       -0.53540       -0.29690
H         -3.41490       -0.62080        0.24020
H         -2.50120        0.10430        1.57220
H         -2.76510        1.35010       -1.25080
H         -2.38960       -1.45770       -1.86260
H         -0.58120       -1.43060       -2.05550
H         -0.33300       -2.70940        0.11430
H         -2.14250       -2.73750        0.30710
