18
gdb 8547	3.95906	2.20018	1.82829	1.8147	70.66	-0.2351	0.0763	0.3114	788.5537	0.154885	-347.760928	-347.754448	-347.753503	-347.791008	26.725
C          0.07330        1.54440        0.01890
C         -0.01850        0.03700        0.00140
C          0.44490       -0.72210       -1.27820
C         -0.68690       -1.75280       -1.06920
O         -0.35800       -2.70730       -0.03500
C         -0.74370       -1.77320        0.99830
C          0.37440       -0.74750        1.28940
C         -1.36570       -0.80260       -0.04380
H          1.12000        1.87160        0.05080
H         -0.38240        1.98400       -0.87580
H         -0.43110        1.96650        0.89560
H          0.25020       -0.11730       -2.17150
H          1.46780       -1.10760       -1.31590
H         -1.15200       -2.23020       -1.93380
H         -1.25520       -2.26730        1.82650
H          1.39400       -1.13410        1.37550
H          0.13070       -0.16030        2.18240
H         -2.38200       -0.41730       -0.06790
