15
gdb 16198	3.27831	2.406	1.55591	3.0499	67.57	-0.2079	-0.0029	0.2051	804.117	0.120341	-362.699741	-362.692968	-362.692023	-362.730465	26.325
O          0.08370        0.00930        0.00610
C          0.04470        1.22220        0.01040
N         -1.08930        2.01600        0.02850
C         -0.75590        3.38000        0.02920
C          0.57450        3.54550        0.01290
C          1.19200        2.20060        0.00010
C          2.46870        1.79570        0.72710
C          2.45030        1.80130       -0.76130
H         -2.02060        1.63650        0.03920
H         -1.54160        4.12070        0.04220
H          1.10560        4.48470        0.00980
H          3.00400        2.58060        1.24910
H          2.42990        0.83560        1.23030
H          2.39890        0.84520       -1.27080
H          2.97250        2.59030       -1.29040
