21
gdb 15193	8.98842	0.66222	0.64535	1.8018	77.17	-0.2318	0.0878	0.3196	1774.2584	0.187388	-366.216842	-366.207307	-366.206363	-366.252202	33.102
C          0.04070        1.31900       -0.11400
O          0.17380       -0.08020       -0.08240
C          0.59040       -0.56360        1.17600
C          0.69150       -2.08080        1.10360
C          1.15970       -2.70060        2.41960
N          1.19930       -4.15560        2.32090
C          2.44840       -4.73560        1.83830
C          2.06180       -4.84500        3.27220
H          0.99380        1.82740        0.10530
H         -0.28210        1.59600       -1.12070
H         -0.70940        1.67650        0.61000
H          1.56520       -0.12200        1.45110
H         -0.12750       -0.26080        1.95930
H         -0.28450       -2.49680        0.83360
H          1.38550       -2.34970        0.29880
H          2.14470       -2.28240        2.70360
H          0.46170       -2.44230        3.22620
H          2.35130       -5.58670        1.17060
H          3.26670       -4.05790        1.59690
H          2.62370       -4.24150        3.98400
H          1.67530       -5.77780        3.67310
