18
gdb 8036	3.48827	1.90682	1.51139	2.367	67.2	-0.2411	0.06	0.3012	888.6463	0.153199	-384.905838	-384.898079	-384.897135	-384.937709	29.725
C         -0.65600        1.32360        0.00360
C          0.04490       -0.02600        0.01400
C          1.23840       -0.25340       -0.97620
C          2.16100       -0.64350        0.21060
O          2.95190       -1.78490        0.13140
C          2.85540        0.53870        0.89400
O          1.68610        0.82310        1.69770
C          0.98570       -0.33930        1.20860
H          0.05790        2.12720        0.20260
H         -1.13220        1.51160       -0.96450
H         -1.43230        1.37120        0.77490
H         -0.68780       -0.83410       -0.09230
H          1.07370       -1.07570       -1.68040
H          1.56380        0.62100       -1.54810
H          2.47600       -2.45850       -0.36490
H          3.70440        0.22590        1.51440
H          3.15010        1.38510        0.26200
H          0.63000       -0.98360        2.01740
