14
gdb 10778	2.76815	2.12287	1.52072	1.3847	53.78	-0.2391	-0.0554	0.1836	830.1286	0.104334	-456.787942	-456.779364	-456.77842	-456.821687	29.774
O          0.47970        1.04010       -0.50620
C          0.08170       -0.21260       -0.06490
C          0.23600       -0.52200        1.46830
O          0.39870        0.68520        2.18780
C         -1.24570       -0.97410        1.46350
O         -1.98500       -1.38180        2.31480
C         -1.46220       -0.49790        0.00520
O         -2.17810        0.72170       -0.03220
H          0.01770        1.68750        0.04040
H          0.59580       -0.96010       -0.67390
H          0.98200       -1.27930        1.74400
H          0.10730        0.53110        3.09370
H         -1.85750       -1.23900       -0.70230
H         -3.03330        0.57570        0.38800
