15
gdb 2970	3.57872	2.45071	1.70249	1.7064	62.09	-0.2582	0.0503	0.3085	761.8139	0.123033	-308.460407	-308.452859	-308.451915	-308.491957	27.293
C          0.22340        1.52780        0.04480
C         -0.01360        0.00380       -0.03700
C          0.57570       -0.55630       -1.25110
C          1.05230       -0.99610       -2.26300
C          0.49250       -0.66720        1.23710
C          1.14500       -1.97890        1.27870
O          1.90220       -0.76900        1.40450
H          1.29370        1.73560        0.11800
H         -0.16980        2.02960       -0.84220
H         -0.27320        1.94160        0.92810
H         -1.09860       -0.17370       -0.07130
H          1.47550       -1.38520       -3.15590
H         -0.03820       -0.33130        2.13080
H          1.07840       -2.58280        2.18260
H          1.30110       -2.52420        0.35100
