14
gdb 16082	4.68072	1.78497	1.52877	2.2553	69.34	-0.2267	0.0115	0.2382	822.1888	0.107769	-341.542309	-341.535551	-341.534607	-341.57286	26.529
C         -0.04430       -1.18800       -0.00470
C         -0.01670        0.01520       -0.00170
C          0.00890        1.43980        0.00880
C          0.40330        2.26920       -1.19330
C          1.28150        2.36060        0.02590
N          1.02440        3.39730        0.97880
C         -0.15950        3.20910        1.43860
N         -0.86920        2.13810        0.92740
H         -0.06170       -2.24970       -0.00970
H          0.80530        1.71830       -2.03550
H         -0.22980        3.11440       -1.44320
H          2.29330        1.97460       -0.02150
H         -0.63110        3.85760        2.16960
H         -1.48770        1.59950        1.51520
