16
gdb 12439	3.44872	1.95685	1.36737	4.3295	66.02	-0.2592	-0.0122	0.2469	888.6365	0.131826	-383.770338	-383.763227	-383.762283	-383.802117	26.638
O          0.06470        0.21870        0.86500
C          0.03220        1.20520        0.17860
C         -1.32540        1.84510       -0.14110
C         -1.48390        2.93100       -1.22090
C         -0.64350        4.14750       -0.93770
C          0.68520        4.06570       -0.91150
C          1.37160        2.76430       -1.21780
O          1.21390        1.73650       -0.21440
H         -1.98730        1.00020       -0.35260
H         -1.66230        2.25000        0.82110
H         -1.22650        2.51430       -2.20390
H         -2.54310        3.19820       -1.27380
H         -1.14550        5.08370       -0.70970
H          1.30230        4.92490       -0.66890
H          1.03570        2.36340       -2.18260
H          2.45340        2.89280       -1.27610
