14
gdb 16103	4.62204	1.73554	1.48687	3.5915	67.76	-0.2575	-0.0171	0.2405	837.7075	0.109166	-341.578936	-341.572542	-341.571598	-341.609351	24.739
N          0.06980       -1.16210       -0.12480
C          0.05410       -0.00950       -0.02330
C          0.01700        1.42040        0.08980
N          0.35900        2.25150       -1.11000
C          1.25860        2.26870        0.05010
C          1.03600        3.44250        0.99720
C         -0.38330        3.23440        1.48610
C         -0.93230        2.11370        1.01640
H          0.75800        1.64490       -1.82590
H          2.23830        1.81350       -0.04040
H          1.75630        3.43130        1.82440
H          1.15490        4.40010        0.47730
H         -0.88590        3.95150        2.12440
H         -1.92820        1.74260        1.21770
