17
gdb 18023	4.16484	1.57295	1.4298	3.2124	63.55	-0.2371	0.0618	0.2989	913.3301	0.143791	-400.936699	-400.929542	-400.928597	-400.968397	27.153
O          0.09070        1.17180       -0.46560
C          0.05150       -0.13810        0.07540
C         -1.39220       -0.61070        0.19600
N         -2.14180       -0.46660       -1.10020
C         -2.59680       -1.88170       -1.03210
C         -1.63620       -2.83670       -1.75770
O         -0.78710       -2.92920       -0.58220
C         -1.69670       -2.13220        0.20060
H         -0.38950        1.10900       -1.30170
H          0.61230       -0.85120       -0.54340
H          0.52840       -0.09400        1.06010
H         -1.89600       -0.09990        1.02590
H         -2.90940        0.19120       -1.03410
H         -3.67090       -2.05710       -1.09430
H         -2.05720       -3.81740       -2.01290
H         -1.11600       -2.41020       -2.62140
H         -1.97350       -2.61280        1.14120
