20
gdb 8085	3.4794	2.06883	1.68401	1.4464	73.99	-0.2341	0.0811	0.3152	861.5729	0.179172	-348.999305	-348.992246	-348.991302	-349.029902	29.065
C         -0.09520        1.53760        0.15860
C          0.03150        0.03800       -0.03540
C          1.21950       -0.52410       -0.87810
C          1.11690       -1.78230        0.01950
C          0.56640       -0.85140        1.13480
O          0.13170       -2.66920       -0.49330
C         -1.19150       -2.14800       -0.41390
C         -1.25470       -0.61470       -0.58640
H          0.84850        1.97040        0.50800
H         -0.36460        2.03720       -0.77970
H         -0.87010        1.77960        0.89560
H          1.07120       -0.67170       -1.95140
H          2.14340        0.03470       -0.69970
H          2.00760       -2.38400        0.20950
H          1.38640       -0.35920        1.66510
H         -0.13710       -1.25970        1.86500
H         -1.77430       -2.66340       -1.18300
H         -1.62950       -2.41910        0.55760
H         -2.13860       -0.23830       -0.05670
H         -1.37100       -0.33810       -1.64130
