16
gdb 4936	6.44662	1.17351	1.01855	2.9092	68.21	-0.1853	0.0489	0.2342	1113.6809	0.132035	-379.944351	-379.936204	-379.93526	-379.977071	29.899
N          0.18700        1.43080        0.04570
C         -0.04510        0.03980        0.00860
C         -1.18930       -0.72460        0.06940
C         -0.80570       -2.09090       -0.10610
C         -1.70270       -3.29380       -0.09720
O         -1.17290       -4.38500       -0.84020
C          0.56120       -2.11100       -0.26360
N          1.01160       -0.81080       -0.19490
H         -0.67640        1.93770       -0.10550
H          0.56640        1.73410        0.93860
H         -2.18910       -0.35190        0.23790
H         -1.83920       -3.68370        0.91950
H         -2.70490       -3.00980       -0.45890
H         -0.93150       -4.03630       -1.70530
H          1.23850       -2.93720       -0.40110
H          1.94760       -0.49820       -0.38650
