22
gdb 9341	7.19162	0.70258	0.65545	2.4608	79.57	-0.2402	-0.0053	0.2349	1790.5537	0.197376	-350.24362	-350.233041	-350.232097	-350.280757	36.285
C          0.12680        1.55180        0.00890
C          0.02740        0.02400        0.00190
C         -1.41980       -0.47890        0.01280
C         -1.52340       -2.00390        0.00580
C         -2.95430       -2.52950        0.01670
O         -3.91000       -1.78670        0.03030
C         -3.11560       -4.04600        0.00970
C         -4.57110       -4.50650        0.02100
H          1.16910        1.88570        0.00100
H         -0.36890        1.98360       -0.86760
H         -0.35250        1.97440        0.89890
H          0.54540       -0.37300       -0.88180
H          0.56180       -0.38210        0.87140
H         -1.94470       -0.08830        0.89230
H         -1.96100       -0.07920       -0.85270
H         -1.01420       -2.42720       -0.87230
H         -0.99780       -2.43620        0.86970
H         -2.58270       -4.43660       -0.86840
H         -2.56620       -4.44630        0.87320
H         -5.09080       -4.13420        0.90750
H         -5.10750       -4.12480       -0.85140
H         -4.63190       -5.59840        0.01570
