16
gdb 5333	6.2509	1.57241	1.28798	1.8907	74.03	-0.1711	0.049	0.22	930.731	0.133141	-342.777931	-342.770931	-342.769987	-342.808912	26.964
N          0.07600        1.42150        0.30760
C          0.00310        0.04520        0.01710
C         -1.14660       -0.73510        0.02460
N         -0.70890       -2.03920       -0.08500
C         -0.93850       -3.36300       -0.69740
C          0.62660       -3.50810       -0.77180
C          0.64140       -2.07480       -0.26790
C          1.14640       -0.79750       -0.21070
H          0.82690        1.87720       -0.19580
H         -0.79000        1.90540        0.10640
H         -2.17040       -0.46760        0.23120
H         -1.48050       -4.06480       -0.05680
H         -1.41960       -3.31260       -1.67920
H          1.05490       -4.26470       -0.10850
H          1.01300       -3.66280       -1.78240
H          2.17170       -0.47060       -0.29280
