13
gdb 2854	6.32084	1.46294	1.2973	1.2588	51.79	-0.2671	-0.0473	0.2198	875.7086	0.099656	-381.563295	-381.556022	-381.555077	-381.595276	24.878
O         -0.10190        1.38650       -0.64590
C          0.11720        0.06020       -0.20280
C         -1.16220       -0.54450        0.32490
O         -2.08040       -1.05100       -0.64040
C         -1.50580       -1.98780        0.27740
C         -0.58270       -3.00800       -0.30980
O         -0.31710       -4.04500        0.24130
H         -0.73430        1.34800       -1.37200
H          0.54160       -0.56950       -0.99650
H          0.85270        0.12410        0.60620
H         -1.63360        0.03720        1.11900
H         -2.17490       -2.37730        1.04360
H         -0.17250       -2.74030       -1.30700
