17
gdb 19643	4.81841	1.77344	1.67248	1.7155	70.43	-0.2113	0.0697	0.281	844.3827	0.141946	-326.60724	-326.600365	-326.599421	-326.638297	26.749
C         -0.00520        1.49600       -0.19620
C         -0.05760        0.00450        0.16100
C         -1.43130       -0.56340        0.05620
C         -2.32160       -0.93800       -1.10680
C         -3.52720       -0.46760       -0.25900
C         -3.20370       -1.45900        0.79920
C         -1.98520       -1.96510       -0.00930
N         -2.63120       -0.06810        0.88360
H          1.00450        1.89570       -0.06480
H         -0.30530        1.66170       -1.23580
H         -0.68510        2.06590        0.44380
H          0.60680       -0.57150       -0.49660
H          0.31110       -0.14590        1.18430
H         -2.12440       -0.98860       -2.16840
H         -4.43870        0.07010       -0.49200
H         -3.79960       -1.88690        1.59670
H         -1.48960       -2.92130       -0.10150
