17
gdb 21199	6.26835	1.29364	1.097	1.4256	73.42	-0.1855	0.035	0.2205	1093.088	0.143596	-360.05911	-360.050805	-360.049861	-360.092481	29.323
C          0.08130        1.31950        0.14760
N         -0.12290       -0.00560       -0.40770
C         -1.32060       -0.65720       -0.15490
N         -1.37680       -1.99020       -0.18170
N         -2.68430       -2.28350        0.03990
C         -3.10390       -3.66300        0.07700
C         -3.43320       -1.17430        0.21440
C         -2.59250       -0.08530        0.09980
H          1.08610        1.66170       -0.11180
H         -0.62840        2.02590       -0.29590
H         -0.03310        1.36830        1.24250
H          0.66560       -0.62780       -0.29980
H         -4.17980       -3.70090        0.25780
H         -2.88160       -4.15570       -0.87430
H         -2.58590       -4.20130        0.87680
H         -4.49350       -1.23680        0.40520
H         -2.86010        0.95450        0.18040
