15
gdb 10596	2.30295	2.14165	1.29937	2.3436	63.88	-0.257	-0.0492	0.2078	943.1638	0.116626	-399.796689	-399.78844	-399.787495	-399.829475	28.931
C         -0.23510        1.41720        0.00550
C          0.01720       -0.06540        0.12200
N          1.29220       -0.59000       -0.29920
C          0.98340       -0.67140        1.14390
C          1.76960        0.21030        2.05440
O          1.75670        0.10090        3.25600
C          0.56500       -2.00530        1.67250
O          0.20280       -2.90030        0.94350
H          0.68580        1.99270        0.11670
H         -0.65050        1.63750       -0.98360
H         -0.95770        1.75180        0.75600
H         -0.85160       -0.70170       -0.04430
H          1.17120       -1.53250       -0.67390
H          2.38100        0.97740        1.53550
H          0.62100       -2.11800        2.76980
