18
gdb 17433	2.68861	2.53507	1.86037	1.0865	70.48	-0.2356	0.0718	0.3073	808.9762	0.153525	-347.754157	-347.746769	-347.745825	-347.7853	29.218
C         -0.00800        1.61270        0.00350
C          0.09450        0.09240       -0.00680
C          0.80720       -0.65480       -1.13630
C          2.29550       -0.77930       -0.76080
C          2.49590       -0.11630        0.60130
C          1.08220       -0.67410        0.93760
O          0.72270       -1.02450        2.23090
C          1.27620       -1.74510       -0.20670
H          0.95170        2.09250       -0.20840
H         -0.71980        1.95750       -0.75460
H         -0.36580        1.98040        0.97310
H         -0.89540       -0.35530        0.14000
H          0.48520       -0.76460       -2.16430
H          3.04430       -0.97700       -1.51660
H          3.25330       -0.64660        1.18540
H          2.66720        0.96450        0.66300
H          0.71890       -0.22720        2.77250
H          1.18950       -2.82070       -0.23390
