19
gdb 9782	2.89974	1.57939	1.39994	3.9251	75.05	-0.288	0.0351	0.3231	1005.2221	0.164511	-327.939969	-327.931107	-327.930162	-327.973078	32.876
C          0.15430        1.41200        0.28820
C         -0.04990       -0.08300       -0.03050
C         -1.48330       -0.39590       -0.12960
N         -2.61070       -0.63460       -0.21980
C          0.69110       -0.54930       -1.29110
C          0.27430        0.11280       -2.59090
C          2.14240       -0.92340       -1.10600
C          1.10600       -1.99910       -1.33390
H          1.22400        1.62560        0.36190
H         -0.27430        2.04620       -0.49110
H         -0.32160        1.67430        1.23620
H          0.33670       -0.66560        0.81520
H          0.47630        1.18920       -2.58470
H          0.82390       -0.31870       -3.43230
H         -0.79490       -0.03050       -2.78090
H          2.83040       -0.69240       -1.91200
H          2.57850       -0.83850       -0.11570
H          0.84060       -2.63700       -0.49730
H          1.08890       -2.50230       -2.29420
