14
gdb 3363	4.54464	2.82664	2.74888	1.5316	56.05	-0.2404	0.0155	0.2559	587.48	0.115004	-324.570823	-324.564927	-324.563983	-324.600436	22.07
C         -0.06620        1.55800        0.01090
C          0.05900        0.05420        0.07750
C          1.32510       -0.69910       -0.21730
O          2.54430        0.02950       -0.11270
C          2.62870        0.39680        1.19360
N          1.71830        0.02450        1.99920
C          0.75950       -0.70380        1.20010
H          0.78890        2.06330        0.46420
H         -0.14190        1.89450       -1.02820
H         -0.96370        1.89010        0.54200
H         -0.81540       -0.48320       -0.28260
H          1.39110       -1.52170       -0.91800
H          3.49870        0.99260        1.44160
H          0.26900       -1.54160        1.68070
