16
gdb 17024	4.24683	1.57591	1.32104	1.4651	71.23	-0.2439	0.0334	0.2773	946.2796	0.128989	-346.499126	-346.491791	-346.490847	-346.530401	28.48
C         -0.00890        1.64270        0.02740
C         -0.01370        0.12700        0.00790
C          1.20070       -0.62360       -0.60960
O          2.03290       -0.19720        0.53520
C          0.75150       -0.64450        1.12080
C          0.83310       -1.90840        0.20310
C         -0.33330       -2.70380       -0.10930
C         -1.29270       -3.38220       -0.36650
H          0.98110        2.02160        0.28900
H         -0.28950        2.04350       -0.95250
H         -0.73310        2.02290        0.75580
H         -0.98920       -0.29280       -0.25050
H          1.63790       -0.55780       -1.60650
H          0.64820       -0.60380        2.20570
H          1.71340       -2.51520        0.42430
H         -2.14090       -3.97950       -0.59370
