12
gdb 4319	4.11514	2.04535	1.36627	4.4547	59.37	-0.2492	-0.0376	0.2116	814.1378	0.087036	-410.927708	-410.921057	-410.920113	-410.958658	24.241
N          0.01390        1.31670        0.00790
C         -0.01040       -0.02950        0.00090
N         -1.17960       -0.63460        0.00410
C         -1.21100       -1.99910       -0.00300
O         -2.19180       -2.70630       -0.00120
N          0.08350       -2.62310       -0.01340
C          1.21820       -1.90640       -0.01580
N          1.24810       -0.61080       -0.00910
H          0.89590        1.79600        0.00560
H         -0.85370        1.82290        0.01540
H          0.09000       -3.63270       -0.01870
H          2.15320       -2.46350       -0.02390
