18
gdb 20995	3.55701	1.73481	1.19221	1.9389	76.23	-0.2185	0.0329	0.2513	1036.7162	0.153693	-344.023101	-344.014236	-344.013292	-344.056965	30.907
C         -0.07540        1.40040        0.09560
N          0.01980       -0.03770       -0.00620
C          0.10250       -0.79390       -1.12970
C          0.08980       -2.11720       -0.73870
C          0.17580       -3.33780       -1.60190
C         -0.01100       -2.05540        0.67630
C         -0.05700       -3.19490        1.64420
N         -0.05640       -0.79460        1.10700
H          0.29960        1.85120       -0.82550
H         -1.11070        1.72180        0.25490
H          0.53020        1.74150        0.93750
H          0.16720       -0.34270       -2.10840
H          1.05480       -3.94770       -1.36070
H         -0.70130       -3.98510       -1.48110
H          0.24260       -3.07070       -2.66040
H          0.84450       -3.81580        1.58040
H         -0.13960       -2.81430        2.66440
H         -0.91230       -3.85330        1.45160
