13
gdb 13476	3.44699	1.88855	1.30484	1.504	54.21	-0.2652	-0.0112	0.2539	869.4807	0.096038	-435.794595	-435.78735	-435.786406	-435.826747	25.865
N         -0.12420        1.28340        0.28780
C          0.08850        0.00470       -0.12240
O          1.14150       -0.42330       -0.54620
C         -1.16540       -0.86780       -0.04310
C         -0.98160       -2.34690        0.31550
O         -1.77050       -2.14290        1.54610
C         -1.93650       -0.81840        1.27650
O         -2.47120        0.01900        1.93590
H          0.67130        1.90050        0.33310
H         -0.94760        1.51350        0.82480
H         -1.79870       -0.67260       -0.91210
H         -1.46830       -3.07590       -0.33220
H          0.04090       -2.64090        0.55070
