20
gdb 19968	3.60878	1.50594	1.18652	1.7316	75.22	-0.2389	0.0838	0.3227	1073.3296	0.177096	-348.974566	-348.966257	-348.965312	-349.008	30.719
C         -0.30710        1.50470        0.01130
C         -0.00800        0.01090        0.01030
C          1.23570       -0.42690       -0.79330
O          1.95170       -0.77520        0.40740
C          0.77100       -0.57790        1.22600
C          1.03090        0.25270        2.44500
C          0.10660        0.12920        3.63540
C          1.50620       -0.41830        3.71080
H          0.59660        2.09600        0.19020
H         -0.71620        1.81300       -0.95690
H         -1.03900        1.76610        0.78220
H         -0.91520       -0.55020       -0.22910
H          1.08610       -1.29500       -1.44950
H          1.74620        0.36160       -1.36090
H          0.36110       -1.55110        1.54110
H          1.43830        1.23890        2.24740
H         -0.13090        1.02890        4.19160
H         -0.71290       -0.57930        3.56920
H          1.63430       -1.49540        3.69260
H          2.23390        0.10540        4.32020
