14
gdb 4198	4.43355	1.68757	1.64495	1.875	65.59	-0.2271	-0.0092	0.2179	817.2056	0.10828	-378.610885	-378.604482	-378.603538	-378.641314	25.141
O         -0.12400        1.34540        0.07910
N          0.02510       -0.06070        0.05070
C         -1.08770       -0.63940        0.01370
C         -2.61000       -0.37760       -0.04970
N         -2.59960       -1.55590       -0.99200
C         -1.56000       -2.10090       -0.04550
C         -2.30060       -2.15170        1.30820
C         -2.99540       -1.00510        1.30530
H          0.79290        1.64010        0.08440
H         -3.05680        0.55640       -0.37920
H         -3.47170       -2.08620       -0.91700
H         -0.93730       -2.93130       -0.36990
H         -2.19170       -2.90140        2.07830
H         -3.61110       -0.55850        2.07240
