20
gdb 11075	2.17135	2.06179	1.82877	1.1689	75.42	-0.2342	0.0804	0.3147	930.71	0.175714	-348.982528	-348.973752	-348.972808	-349.014969	33.445
C         -0.01270        1.56160       -0.00690
C          0.12670        0.05370       -0.05530
C          0.72110       -0.76220       -1.19440
C         -0.03780       -1.85600       -1.88920
C          1.93520       -0.02820       -1.78820
C          2.62740       -0.04120       -0.38560
C          1.38720       -0.73730        0.18350
O          1.44700       -1.77640        1.10160
H          0.86400        2.07480       -0.41070
H         -0.88290        1.89430       -0.58400
H         -0.14930        1.91040        1.02330
H         -0.72670       -0.47270        0.37180
H         -0.70100       -1.45740       -2.66690
H          0.64390       -2.56760       -2.36960
H         -0.65540       -2.41540       -1.17930
H          2.47160       -0.63740       -2.52020
H          1.74390        0.95350       -2.23290
H          3.49570       -0.70350       -0.36700
H          2.91090        0.92250        0.05160
H          1.29610       -1.41570        1.98180
