15
gdb 5409	5.19886	1.49354	1.16868	3.7134	69.42	-0.2471	-0.0169	0.2301	971.4487	0.121025	-362.713773	-362.706668	-362.705724	-362.746342	25.738
O          0.30870        0.78600        1.02960
C         -0.06710        0.21140       -0.20610
C         -1.43700       -0.41110       -0.08670
C         -2.16180       -0.38190        1.10120
C         -3.42050       -0.97860        1.13320
N         -3.98950       -1.58570        0.08970
C         -3.28420       -1.60780       -1.04640
C         -2.02230       -1.04350       -1.18490
H          1.18160        1.17490        0.92830
H         -0.08920        0.96610       -1.00960
H          0.64910       -0.56500       -0.52220
H         -1.75000        0.09690        1.97980
H         -4.00170       -0.96560        2.05280
H         -3.75440       -2.10430       -1.89230
H         -1.50490       -1.09820       -2.13840
