17
gdb 12053	3.45441	1.84908	1.5377	2.0808	68.48	-0.2392	-0.0252	0.2141	873.2631	0.14145	-363.825639	-363.818033	-363.817089	-363.857435	28.759
C          0.02800        1.67260        0.37770
C         -0.00430        0.16570        0.13370
C          0.94100       -0.44110       -0.96300
C          1.62160       -1.27710        0.12300
N          2.16770       -0.31430        1.11390
C          0.74420       -0.71450        1.17870
C         -1.43310       -0.32420        0.01090
O         -1.85300       -1.08940       -0.81890
H          1.04490        1.97730        0.63320
H         -0.28900        2.22350       -0.51430
H         -0.63650        1.95730        1.20220
H          0.36900       -1.03610       -1.67630
H          1.58890        0.26930       -1.48100
H          2.03980       -2.27140        0.03020
H          2.65810       -0.85500        1.82650
H          0.32920       -1.16600        2.07240
H         -2.10860        0.08310        0.80010
