20
gdb 15109	7.8121	0.70256	0.67406	0.8036	81.67	-0.2562	0.0586	0.3148	1669.2142	0.175615	-311.82745	-311.818282	-311.817337	-311.861992	33.42
C          0.00820       -1.18580       -0.27140
C         -0.00950        0.00190       -0.08580
C          0.00390        1.44300        0.13360
C          1.41340        2.05900        0.02480
C          1.41200        3.57420        0.25900
C          2.79170        4.19000        0.16070
C          3.35530        4.58980       -1.18060
C          2.95960        5.64850       -0.17950
H          0.01190       -2.23490       -0.43360
H         -0.66310        1.92830       -0.59150
H         -0.41600        1.66520        1.12380
H          2.07170        1.56970        0.75240
H          1.82800        1.83590       -0.96450
H          0.74940        4.05670       -0.47300
H          0.98130        3.79050        1.24700
H          3.51000        3.78620        0.87070
H          4.41040        4.42870       -1.37180
H          2.72290        4.45880       -2.05310
H          2.06370        6.22670       -0.38210
H          3.74490        6.20900        0.31570
