16
gdb 10567	2.884	1.47084	1.09904	1.4568	61.85	-0.2602	-0.0403	0.2199	1070.5119	0.127758	-420.85488	-420.846172	-420.845228	-420.888773	30.194
O         -0.18210        1.41070        0.08080
C         -0.08250        0.01910       -0.17850
C         -1.36370       -0.62310        0.35070
C         -1.43250       -2.10500        0.07530
C         -2.67850       -2.74890       -0.40400
O         -1.60440       -2.51760       -1.29690
C         -0.49590       -3.01260        0.81670
O          0.16650       -2.68010        1.76590
H          0.63640        1.82790       -0.20270
H          0.00770       -0.18440       -1.25660
H          0.78870       -0.42260        0.32530
H         -1.42160       -0.46150        1.43190
H         -2.22070       -0.12260       -0.10960
H         -2.88280       -3.79410       -0.17330
H         -3.55510       -2.11640       -0.53410
H         -0.46580       -4.04370        0.39920
