12
gdb 9023	4.7123	0.92404	0.79808	4.659	72.39	-0.3067	-0.0624	0.2443	1318.3716	0.083137	-340.381936	-340.373819	-340.372875	-340.4151	27.554
C         -0.00890        1.55600        0.00630
C         -0.02100        0.00550        0.04330
C          0.74050       -0.49790        1.19890
N          1.35750       -0.87040        2.10090
C         -1.38240       -0.52750        0.04820
C         -2.51490       -0.94220        0.02820
C         -3.79790       -1.41110        0.00600
N         -4.88910       -1.80740       -0.01630
H          1.02210        1.91370       -0.02950
H         -0.54170        1.90260       -0.88130
H         -0.49550        1.96210        0.89470
H          0.48420       -0.36680       -0.85880
