19
gdb 11992	2.59787	2.13527	1.74691	0.5985	70.82	-0.2281	0.0761	0.3042	876.9725	0.164389	-365.019658	-365.011396	-365.010451	-365.051443	32.325
C         -0.43560        1.53560        0.34490
C         -0.12530        0.04990        0.23280
C          0.28490       -0.50100       -1.14090
N          1.58600        0.13200       -1.47440
C          1.54670       -1.06430       -0.60070
C          1.23140       -0.55990        0.81390
C          2.23180        0.37780        1.46780
O          0.98420       -1.70420        1.61810
H          0.33610        2.13210       -0.14790
H         -1.39600        1.76670       -0.12970
H         -0.50290        1.85460        1.39100
H         -0.93450       -0.55790        0.64860
H         -0.36140       -0.87620       -1.92550
H          1.84900       -0.18650       -2.40610
H          2.07820       -1.97470       -0.84940
H          2.50760        1.18450        0.78570
H          1.81370        0.82590        2.37810
H          3.13400       -0.17640        1.74580
H          0.69900       -1.39740        2.48550
