11
gdb 23903	4.76814	0.85562	0.83555	3.8806	48.37	-0.2834	-0.0077	0.2757	1295.8205	0.066669	-528.85574	-528.847473	-528.846529	-528.890587	27.172
O         -0.01250        1.45590        0.01110
C          0.00660        0.03870        0.00180
C         -1.36360       -0.46190        0.01240
C         -2.48080       -0.90020        0.02080
C         -3.84160       -1.42950        0.03110
F         -3.83630       -2.77020        0.02460
F         -4.51400       -1.03270        1.11940
F         -4.53430       -1.02240       -1.04060
H          0.90160        1.75790        0.00410
H          0.51490       -0.35860       -0.89150
H          0.53260       -0.37000        0.87960
