11
gdb 21905	5.79704	1.70002	1.31453	1.0106	57.57	-0.2517	-0.0969	0.1548	830.774	0.072829	-430.691831	-430.685582	-430.684637	-430.722465	23.139
O         -0.06890        1.28610       -0.27600
C          0.03390       -0.02170       -0.01100
N          1.21070       -0.53540        0.09070
O          1.25550       -1.91870        0.37140
C          0.10580       -2.64290        0.52090
N          0.09810       -3.88750        0.77350
C         -1.14470       -1.89660        0.37220
N         -1.20200       -0.64300        0.11790
H          0.82880        1.64090       -0.34990
H          1.04850       -4.25640        0.84630
H         -2.06320       -2.46710        0.49010
