11
gdb 1386	7.48524	1.24204	1.07239	5.6058	59.26	-0.2562	-0.1058	0.1504	1019.8921	0.074732	-343.239068	-343.231079	-343.230135	-343.274271	24.832
C          0.04470        1.44870        0.00820
C          0.00300       -0.00170       -0.00930
C         -0.05430       -1.20870       -0.02310
C         -0.07500       -2.64900       -0.03830
O         -1.07570       -3.32590       -0.07660
C          1.33040       -3.30250       -0.00060
O          1.48000       -4.49070       -0.00810
H          1.06910        1.82230       -0.08560
H         -0.54980        1.86220       -0.81350
H         -0.37410        1.83170        0.94530
H          2.17850       -2.58400        0.03350
