12
gdb 11184	4.20575	1.6283	1.42259	2.7972	55.7	-0.2822	-0.0063	0.276	853.4151	0.08291	-418.467533	-418.46064	-418.459696	-418.499117	24.719
O          0.02880        0.00970       -0.03230
C         -0.04590        1.19690        0.03310
C         -1.27620        2.09010        0.13520
O         -0.75690        3.36690        0.46210
C          0.58120        3.38420        0.00620
O          1.03930        2.02680        0.03350
C          0.70820        3.93620       -1.34680
C          0.80370        4.40660       -2.44710
H         -1.81740        2.08830       -0.82130
H         -1.94610        1.75340        0.92850
H          1.17670        3.95700        0.72230
H          0.89250        4.82180       -3.42150
