16
gdb 9668	3.3884	1.43545	1.36587	2.9985	63.32	-0.2442	-0.0244	0.2198	977.7	0.127291	-420.853925	-420.845353	-420.844409	-420.886986	30.7
C         -0.26550        1.05700       -0.32570
O          0.43830       -0.11930        0.06160
C          0.98480       -0.79820       -1.02000
C          1.45590       -2.18650       -0.77910
C          0.14110       -1.98640       -1.52370
O         -1.06500       -2.23000       -0.87530
C          0.10460       -2.21480       -2.98330
O          1.07950       -2.15240       -3.69770
H          0.40690        1.77150       -0.81830
H         -1.09500        0.82380       -1.00600
H         -0.65840        1.50550        0.58860
H          1.49020       -0.18520       -1.76420
H          2.29860       -2.53530       -1.36520
H          1.36440       -2.57590        0.22880
H         -1.10150       -1.62120       -0.12450
H         -0.91150       -2.42900       -3.37830
