18
gdb 4336	3.58374	1.7601	1.19792	0.2951	82.66	-0.2298	0.0072	0.2371	1026.6316	0.154648	-310.752381	-310.744258	-310.743314	-310.786957	29.394
C         -0.01910        1.52770        0.00480
C         -0.00880        0.01820       -0.00890
C          0.01890       -0.68640       -1.21520
C          0.05030       -2.07750       -1.21900
C          0.05370       -2.78330       -0.01980
C          0.02640       -2.10480        1.20140
C          0.05380       -2.86180        2.50730
C         -0.00900       -0.70850        1.18410
H          0.99740        1.93300       -0.07360
H         -0.59200        1.93170       -0.83550
H         -0.45310        1.91710        0.93020
H          0.00950       -0.14200       -2.15500
H          0.06400       -2.61490       -2.16200
H          0.07140       -3.86930       -0.03010
H          1.08130       -3.10870        2.80230
H         -0.38490       -2.27540        3.31970
H         -0.49540       -3.80550        2.43450
H         -0.04100       -0.17050        2.12870
