18
gdb 17710	6.10074	1.53605	1.49699	1.1796	72.45	-0.2098	0.0739	0.2837	915.2058	0.153284	-343.852077	-343.844981	-343.844037	-343.882847	28.073
C         -0.05020        1.54350       -0.26280
N         -0.01520        0.09320       -0.10140
C         -1.08870       -0.48510        0.75670
C         -0.19010       -1.67300        1.18580
C          0.72770       -0.40320        1.09320
C         -0.43870       -0.10500        2.13380
N         -0.55890       -1.50970        2.62130
C          0.45420       -1.93060        3.58400
H          0.90760        1.88340       -0.67050
H         -0.83070        1.80690       -0.98420
H         -0.24310        2.10230        0.66920
H         -2.14560       -0.50380        0.48990
H         -0.06530       -2.63530        0.68890
H          1.80960       -0.30210        1.18920
H         -0.60890        0.75360        2.78480
H          0.20260       -1.52750        4.57060
H          0.44730       -3.02300        3.65980
H          1.48100       -1.61140        3.33550
