18
gdb 9388	5.6559	0.86117	0.77738	4.7534	69.94	-0.2613	0.0238	0.2851	1448.1299	0.152714	-381.119954	-381.110365	-381.109421	-381.155001	32.931
C         -0.11300        1.51240       -0.03630
C         -0.02040       -0.00260        0.00750
O         -1.33510       -0.53470        0.02060
C         -1.37690       -1.93940        0.05920
C         -2.86840       -2.32810        0.00160
N         -3.58630       -1.83770       -1.17620
C         -2.99910       -3.78710        0.10430
N         -3.06180       -4.93800        0.17950
H          0.88820        1.95280       -0.04500
H         -0.64350        1.84040       -0.93480
H         -0.65090        1.89000        0.83770
H          0.53010       -0.38630       -0.86700
H          0.52590       -0.33380        0.90520
H         -0.84410       -2.37960       -0.80030
H         -0.91250       -2.33020        0.97870
H         -3.34910       -1.88830        0.88490
H         -3.37860       -0.84590       -1.25880
H         -3.21440       -2.28310       -2.01140
