21
gdb 20023	4.535	1.13343	0.99131	1.2339	80.37	-0.2177	0.0879	0.3057	1259.736	0.188373	-329.083083	-329.074347	-329.073402	-329.116835	32.51
C         -0.14470        1.61150       -0.23940
C          0.01470        0.17440        0.25150
N         -1.26210       -0.52820        0.16760
C         -1.54700       -1.27580       -1.05400
C         -1.29640       -1.99150        0.23060
C         -0.07680       -2.83660        0.42940
C          0.25440       -3.35860        1.80920
C         -0.24620       -4.30330        0.74840
H          0.79690        2.16130       -0.14360
H         -0.44340        1.63230       -1.29280
H         -0.91450        2.13040        0.33850
H          0.81590       -0.32040       -0.32270
H          0.32860        0.17000        1.30210
H         -2.55070       -1.17780       -1.46040
H         -0.75970       -1.33670       -1.80650
H         -2.16320       -2.36270        0.77960
H          0.77060       -2.59030       -0.20170
H          1.29710       -3.41320        2.10160
H         -0.42160       -3.10260        2.61850
H         -1.25780       -4.68420        0.84440
H          0.45170       -5.00660        0.30830
