15
gdb 14614	13.0444	0.62143	0.60736	3.2247	64.4	-0.2671	-0.0391	0.228	1691.9474	0.116055	-399.800008	-399.790995	-399.790051	-399.835502	29.08
O         -0.17220        0.00490       -0.09320
C          0.00810        1.19230       -0.03530
C          1.34950        1.87130       -0.21390
C          1.31000        2.92810       -1.31470
O          2.51570        3.66850       -1.24660
C          2.59750        4.65620       -2.24460
C          3.86120        5.38390       -2.09860
N          4.84770        5.97610       -2.00840
H         -0.83710        1.89110        0.16910
H          1.59760        2.38050        0.72740
H          2.11430        1.11830       -0.41460
H          1.20610        2.45380       -2.30360
H          0.44420        3.59840       -1.17850
H          2.55850        4.21690       -3.25480
H          1.76660        5.37690       -2.17130
