16
gdb 18631	3.1073	2.02381	1.74707	2.5562	64.33	-0.2352	-0.0099	0.2253	814.2973	0.131543	-383.756069	-383.749092	-383.748148	-383.787201	26.982
O          0.03990        1.37230        0.05480
C         -0.02180       -0.01960       -0.02790
C         -1.34810       -0.67880        0.03780
C         -2.58490        0.19550       -0.19790
C         -2.37920        0.88330       -1.56140
C         -1.28230        0.08570       -2.27680
O         -1.06800        0.09050       -3.46450
C         -0.54830       -0.74390       -1.26870
H          0.79390        1.67310       -0.46400
H          0.80210       -0.53690        0.46340
H         -1.45490       -1.55580        0.66630
H         -3.46800       -0.45010       -0.22700
H         -2.73020        0.91140        0.61550
H         -3.27820        0.91400       -2.18100
H         -2.01910        1.91000       -1.44620
H         -0.01660       -1.61840       -1.62250
