15
gdb 20817	4.87885	1.55761	1.29735	2.7102	68.73	-0.2351	-0.071	0.1641	943.5754	0.12031	-358.859587	-358.852472	-358.851528	-358.89192	25.43
C         -0.31050        1.50460        0.12400
C          0.16680        0.05310       -0.05660
C          0.80060       -0.49300        1.19440
C          0.11880       -1.32040        2.09730
N          0.69620       -1.76150        3.20420
C          1.95810       -1.35020        3.37130
N          2.65800       -0.57220        2.54850
N          2.06520       -0.13880        1.44020
H          0.52820        2.14780        0.40400
H         -0.74290        1.88560       -0.80540
H         -1.07140        1.57810        0.90780
H         -0.67450       -0.58560       -0.34720
H          0.90730        0.01130       -0.86120
H         -0.90820       -1.62870        1.90890
H          2.47860       -1.68180        4.26490
