17
gdb 14925	4.43702	1.4537	1.1718	4.1744	69.17	-0.2171	0.0245	0.2416	1002.2105	0.145777	-360.044706	-360.037451	-360.036507	-360.076168	27.732
N          0.00430       -1.16410        0.01370
C          0.01770       -0.00900       -0.01620
C          0.00460        1.45670        0.01080
C         -0.76480        1.97980        1.25820
N         -0.72100        3.43190        1.36700
C          0.64470        3.95760        1.27390
C          1.40340        3.43900        0.04310
N          1.37590        1.97580       -0.07980
H         -0.53070        1.80150       -0.88610
H         -1.80720        1.64700        1.23060
H         -0.30390        1.54570        2.15510
H         -1.29840        3.84870        0.64220
H          0.60010        5.05210        1.27280
H          1.18190        3.65690        2.18460
H          0.95300        3.85840       -0.86780
H          2.45050        3.75950        0.06030
H          1.93640        1.55840        0.65900
