18
gdb 14209	2.71531	2.41789	1.81015	2.0144	71.48	-0.2205	0.0805	0.301	835.6887	0.153193	-347.74642	-347.738942	-347.737998	-347.777648	29.005
C         -0.12070        1.46240        0.01270
C          0.01790       -0.02920       -0.04000
C          0.96090       -0.87000       -0.90340
C          0.13430       -2.08140       -0.40810
O          0.45440       -2.16120        1.00990
C         -0.30010       -0.95860        1.15420
C         -1.07640       -1.10510       -0.11290
C         -2.52490       -1.09080       -0.47590
H          0.79350        1.93100        0.39540
H         -0.32160        1.88560       -0.97850
H         -0.94340        1.76340        0.67130
H          0.80280       -0.67620       -1.96860
H          2.03130       -0.88590       -0.67090
H          0.12440       -3.04840       -0.90800
H         -0.57000       -0.61810        2.14650
H         -3.02680       -0.22800       -0.02440
H         -2.67040       -1.02430       -1.56050
H         -3.03670       -1.99370       -0.12380
