10
gdb 924	6.18662	2.94248	1.99406	4.2703	49.71	-0.2704	-0.0708	0.1996	573.4433	0.070235	-355.556836	-355.551792	-355.550848	-355.585782	18.158
O         -0.03530       -0.05400        0.00270
C          0.02660        1.14950        0.00930
N         -1.17350        1.91980        0.02920
C         -1.16770        3.26390        0.03630
N         -0.07480        3.96820        0.02540
C          1.06900        3.20730        0.00600
N          1.18500        1.91260       -0.00250
H         -2.03770        1.39370        0.03780
H         -2.13650        3.75930        0.05180
H          1.99330        3.78300       -0.00350
