15
gdb 4937	6.7843	1.18949	1.02904	3.0367	64.42	-0.1872	0.0362	0.2234	1087.2555	0.119483	-399.816144	-399.808325	-399.807381	-399.848369	28.748
N          0.24270        1.34540        0.34690
C         -0.05730        0.01360        0.10140
C         -1.17710       -0.74610        0.27000
C         -0.79580       -2.08990       -0.08560
C         -1.65980       -3.31570       -0.07480
O         -1.12110       -4.37830       -0.84550
C          0.51080       -2.03310       -0.44510
O          0.97690       -0.74040       -0.33410
H          0.96290        1.70270       -0.26790
H         -0.57280        1.94160        0.33070
H         -2.14550       -0.40480        0.59990
H         -1.75530       -3.71330        0.94300
H         -2.67930       -3.05380       -0.40330
H         -0.97850       -4.03560       -1.73450
H          1.22790       -2.76420       -0.77260
