12
gdb 4659	6.73117	1.35359	1.12696	2.8213	65.71	-0.2052	0.0058	0.211	964.2191	0.084586	-377.532906	-377.526031	-377.525087	-377.563703	26.169
O          0.11390        1.30260        0.13220
C          0.07500       -0.03320        0.01740
N          0.10420       -0.72820       -1.08250
C          0.03990       -2.05870       -0.65840
C         -0.02710       -2.11620        0.71140
N         -0.00370       -0.79990        1.13780
C          0.04670       -3.14700       -1.56150
C          0.05230       -4.07650       -2.32690
H          0.16810        1.65170       -0.76650
H         -0.08710       -2.94390        1.39630
H         -0.03770       -0.46350        2.08500
H          0.05740       -4.89360       -3.00440
