18
gdb 17977	2.68718	2.43812	1.50568	0.7667	64.62	-0.2421	0.0962	0.3382	868.0675	0.155712	-422.057592	-422.050379	-422.049435	-422.088869	27.599
C         -0.03530        1.40260        0.04860
C          1.39920        1.95160        0.01080
O          2.24940        1.35490       -0.95550
C          1.91710        1.55460       -2.29570
O          0.71760        0.93550       -2.68990
C          0.60200       -0.43620       -2.31590
C         -0.42800       -0.59950       -1.19970
O         -0.06530       -0.01430        0.03450
H         -0.49100        1.73730        0.99110
H         -0.62980        1.81000       -0.77590
H          1.35750        3.04530       -0.12680
H          1.88970        1.74850        0.96710
H          1.77770        2.61980       -2.53210
H          2.77220        1.15230       -2.85730
H          0.26100       -0.99690       -3.19620
H          1.56930       -0.83710       -1.99490
H         -1.38990       -0.19110       -1.54880
H         -0.56840       -1.66770       -0.99800
