14
gdb 268	8.89923	1.94768	1.64777	3.6117	51.17	-0.2449	-0.0102	0.2347	743.2534	0.116412	-307.571921	-307.564235	-307.563291	-307.604498	24.783
C         -0.01750        1.39560        0.05270
O         -0.04340       -0.01160        0.00240
C          0.64250       -0.60410        1.06070
C          0.59530       -2.12660        0.94600
C          1.23430       -2.87270        2.10610
O          0.08670       -2.68770        0.00950
H          1.01080        1.78840        0.00500
H         -0.57570        1.75990       -0.81250
H         -0.48950        1.78230        0.97010
H          1.70590       -0.29730        1.08590
H          0.22230       -0.31240        2.04190
H          0.62420       -2.75070        3.00880
H          1.30240       -3.93350        1.86310
H          2.22980       -2.47760        2.33550
