11
gdb 21385	5.66967	2.27996	1.62606	0.931	56.83	-0.2381	-0.0236	0.2145	693.0054	0.076712	-393.592389	-393.587279	-393.586335	-393.621501	19.719
N          0.01540        1.32300        0.00950
N          1.28380        1.81640        0.00000
C          2.11490        0.76810       -0.01400
C          1.34960       -0.40810       -0.01340
C          0.03000       -0.02910        0.00150
N         -0.80630       -1.12400        0.00330
C          0.04690       -2.10580       -0.01060
O          1.37670       -1.77730       -0.02160
H         -0.75830        1.96420        0.02070
H          3.18070        0.92830       -0.02340
H         -0.17440       -3.16180       -0.01460
