15
gdb 3187	5.07771	2.06172	1.84398	0.3845	56.86	-0.2646	0.0768	0.3414	729.8689	0.123674	-345.608658	-345.601692	-345.600748	-345.639601	25.461
C          0.03510        1.55200       -0.00020
C         -0.00200        0.04380       -0.05440
C          1.09170       -0.70840       -0.69250
O          0.98580       -0.64210        0.73120
C         -1.34730       -0.62510        0.00120
C         -2.54600       -0.00210        0.57750
O         -2.37150       -0.08820       -0.83950
H          1.04360        1.91990       -0.20030
H         -0.65050        1.96970       -0.74290
H         -0.26480        1.91250        0.98900
H          0.89750       -1.68620       -1.13210
H          1.92940       -0.16370       -1.12560
H         -1.28800       -1.71410        0.00890
H         -3.32700       -0.63790        0.99160
H         -2.49710        1.00200        0.99250
