10
gdb 78	10.68182	4.39532	3.17969	2.329	35.5	-0.2669	0.0575	0.3244	398.5908	0.079271	-284.385189	-284.379361	-284.378417	-284.414085	19.084
C         -0.02650        1.38310        0.02090
O          0.04140       -0.04440       -0.00280
C          0.66780       -0.56000       -1.09000
N          0.72610       -1.92220       -0.98820
O          1.12950        0.09650       -1.99320
H          0.97530        1.82040        0.02390
H         -0.57090        1.76210       -0.84790
H         -0.55410        1.63840        0.94040
H          0.12660       -2.38400       -0.32570
H          0.97230       -2.41800       -1.82730
