14
gdb 8831	3.1237	1.55293	1.16617	2.8521	59.9	-0.2692	-0.0083	0.2609	1016.0887	0.103959	-419.662043	-419.653132	-419.652187	-419.696179	30.471
C         -0.06700        1.35210       -0.02170
O         -0.04040       -0.08370       -0.10610
C          0.66410       -0.58860       -1.11500
O          1.23990        0.05260       -1.95930
C          0.68330       -2.12740       -1.10510
O          1.13650       -2.59070       -2.35130
C          1.51030       -2.59170        0.01760
C          2.19870       -2.97390        0.92470
H          0.94470        1.74300        0.10860
H         -0.50140        1.77820       -0.92880
H         -0.68320        1.58350        0.84600
H         -0.34650       -2.47680       -0.95530
H          1.64340       -1.85740       -2.73230
H          2.80480       -3.31970        1.72550
