18
gdb 19855	3.84611	2.22237	1.9433	0.2477	74.87	-0.2354	0.0278	0.2632	771.4986	0.156803	-310.646741	-310.640683	-310.639739	-310.676536	25.505
C         -0.01910        1.45400       -0.03500
C          1.31670        0.76740        0.04080
C          0.01600       -0.04120        0.09320
C          0.37730       -0.71350       -1.26010
C         -0.34180       -0.29790       -2.51160
C          0.36680        0.58200       -3.22430
C          1.70700        0.92780       -2.60320
C          1.71290        0.10520       -1.29320
H         -0.30620        1.98220        0.86890
H         -0.36470        1.92420       -0.95110
H          2.00990        0.98050        0.84630
H         -0.43110       -0.55460        0.93600
H          0.49700       -1.79600       -1.15900
H         -1.32640       -0.66350       -2.78430
H          0.03900        1.02410       -4.16050
H          2.53640        0.65910       -3.27020
H          1.80140        2.00590       -2.41650
H          2.60600       -0.51250       -1.18670
