13
gdb 8980	7.26914	0.89288	0.80185	1.6284	62.39	-0.2667	-0.0867	0.18	1289.5449	0.094469	-394.795658	-394.7873	-394.786355	-394.829764	27.954
N         -0.07220        1.37460       -0.12650
C         -0.02620        0.10290       -0.03270
N         -1.15870       -0.66790        0.02890
C         -2.44950       -0.01310        0.13850
C         -3.53550       -0.97770       -0.03270
N         -4.38790       -1.74760       -0.15000
C          1.26510       -0.68990       -0.02500
O          2.34060       -0.15910       -0.09130
H          0.88130        1.72990       -0.21720
H         -1.08470       -1.60910        0.38170
H         -2.57280        0.50550        1.10060
H         -2.50930        0.76180       -0.63290
H          1.16130       -1.79560        0.04450
