18
gdb 6511	2.92257	1.84125	1.37173	3.1847	73.36	-0.2608	0.0187	0.2795	963.3178	0.151945	-343.989825	-343.9807	-343.979755	-344.022912	33.295
C         -0.05890        1.52750       -0.04750
C         -0.03480        0.01290        0.03140
C         -1.25080       -0.64690       -0.59060
N          1.28440       -0.60380       -0.17150
C          0.67530       -0.67070        1.18060
C          1.40150        0.06410        2.29460
C          0.14920       -1.95290        1.60260
N         -0.24680       -2.98020        1.95980
H          0.87920        1.97080        0.28630
H         -0.21910        1.83610       -1.08620
H         -0.87850        1.93590        0.55270
H         -1.28890       -0.41580       -1.66090
H         -1.23900       -1.73270       -0.47110
H         -2.17350       -0.26960       -0.13760
H          1.19570       -1.50110       -0.64430
H          1.85130        0.98230        1.91810
H          0.71610        0.30940        3.11130
H          2.20140       -0.56390        2.69740
