10
gdb 21432	3.3317	2.60488	1.4619	4.6465	52.11	-0.2926	-0.081	0.2116	745.8506	0.060182	-450.577594	-450.571381	-450.570436	-450.608552	22.038
N         -0.01860        1.22980        0.37920
C         -0.01240        0.02840        0.01910
O          1.14870       -0.61930       -0.37130
C          1.06970       -1.91390       -0.74530
N          0.04940       -2.66660       -0.79780
O         -1.18010       -2.08860       -0.41620
C         -1.28420       -0.78590       -0.00850
O         -2.35000       -0.35480        0.30070
H          0.91910        1.63460        0.34120
H          2.02740       -2.33000       -1.03220
