13
gdb 7718	3.44929	2.07459	1.34564	1.987	56.65	-0.2784	-0.0285	0.2499	844.6142	0.096156	-435.768775	-435.762058	-435.761114	-435.800243	24.326
N         -0.13070        1.31980       -0.21570
C         -0.06720        0.09950        0.07730
C         -1.24670       -0.83230       -0.03050
O         -1.22930       -1.78280        1.01530
C         -0.07970       -2.58810        0.94180
C          1.22140       -1.80250        0.86550
O          2.29690       -2.26860        1.08900
O          1.12130       -0.47740        0.50670
H          0.77940        1.77180       -0.10690
H         -2.16320       -0.24960        0.05420
H         -1.23550       -1.33020       -1.01510
H         -0.04160       -3.20720        1.83990
H         -0.10780       -3.26090        0.06730
