16
gdb 19473	4.92869	1.58554	1.53704	2.6446	65.3	-0.2381	0.0006	0.2387	880.1394	0.130273	-383.670773	-383.663867	-383.662923	-383.702042	26.275
C          0.16120        1.34690        0.08130
O         -0.25080        0.03350       -0.23650
C          0.49800       -0.55530       -1.24310
C          1.79400       -1.36490       -0.80550
O          0.89210       -2.40370       -0.31690
C          0.10860       -2.04880       -1.49720
C          1.06890       -2.38590       -2.64330
C          2.22670       -1.91530       -2.16480
H          1.18140        1.36820        0.49120
H          0.12750        2.00600       -0.79980
H         -0.52950        1.72750        0.83650
H          0.60120        0.10270       -2.11790
H          2.52460       -1.01240       -0.07920
H         -0.92010       -2.40460       -1.49200
H          0.82620       -2.84530       -3.58980
H          3.20980       -1.87030       -2.60980
