20
gdb 12288	2.72943	1.73075	1.47805	2.4259	71.55	-0.2464	0.0733	0.3197	988.2571	0.175979	-386.119416	-386.110545	-386.109601	-386.152519	32.942
C          0.17050        0.87950       -0.76530
O         -0.04540       -0.42490       -0.26880
C         -1.34500       -0.61810        0.27320
C         -2.39170       -0.95120       -0.82850
C         -2.01880       -2.45250       -0.64930
O         -1.03630       -2.90540       -1.55500
C         -1.46840       -2.08450        0.76880
C         -0.25800       -2.80980        1.33090
H          1.19510        0.91790       -1.14260
H         -0.51940        1.13290       -1.58300
H          0.05400        1.63090        0.02990
H         -1.57610        0.18870        0.98270
H         -3.41330       -0.72850       -0.50790
H         -2.22450       -0.52940       -1.82280
H         -2.83110       -3.18230       -0.69140
H         -0.32180       -2.25510       -1.53560
H         -2.30150       -2.12380        1.47990
H          0.57770       -2.79510        0.62910
H          0.07860       -2.34740        2.26470
H         -0.50300       -3.85600        1.54110
