9
gdb 23836	3.44873	2.48829	1.44541	2.5355	47.96	-0.2916	-0.112	0.1796	730.1333	0.048221	-474.610059	-474.604238	-474.603294	-474.640387	20.712
F          0.02940        0.10550        0.16940
C         -0.03490        1.40440        0.05260
N         -1.16320        1.98510       -0.00800
C         -1.10470        3.36090       -0.13050
N         -0.06110        4.11100       -0.18940
O          1.16770        3.45240       -0.12100
C          1.28160        2.08990        0.00150
O          2.35260        1.56420        0.05710
H         -2.05050        3.88800       -0.18490
