24
gdb 6055	2.76544	1.52424	1.29671	1.0193	81.36	-0.2452	0.0765	0.3217	1128.5917	0.219999	-351.408448	-351.397728	-351.396784	-351.44316	39.927
C         -0.16120        1.33490        0.11360
O          0.08230       -0.04400       -0.02840
C          0.71690       -0.51010       -1.23560
C         -0.00080        0.02210       -2.48610
C          2.18920       -0.06640       -1.23770
C          0.60730       -2.05720       -1.09540
C         -0.85030       -2.54080       -1.05230
C          1.39940       -2.84560       -2.14820
H          0.75090        1.94470        0.04000
H         -0.88950        1.71700       -0.61550
H         -0.57810        1.47140        1.11540
H          0.17330        1.09370       -2.62020
H          0.37220       -0.47880       -3.38370
H         -1.07920       -0.14380       -2.42450
H          2.72140       -0.49540       -0.38320
H          2.69760       -0.37450       -2.15490
H          2.27160        1.02270       -1.17820
H          1.05030       -2.27010       -0.11360
H         -1.32840       -2.47040       -2.03580
H         -0.89090       -3.59180       -0.74820
H         -1.43450       -1.95420       -0.34110
H          2.46880       -2.62100       -2.12640
H          1.28770       -3.91960       -1.96660
H          1.03320       -2.65270       -3.16300
