16
gdb 3574	4.78667	2.76464	2.33907	1.652	63.33	-0.2181	0.0666	0.2847	640.7115	0.137512	-288.5395	-288.533347	-288.532402	-288.569153	24.249
C         -0.01930        1.60960        0.05070
C          0.11530        0.09400       -0.07620
C          0.46930       -0.74610       -1.27360
C          1.79020       -0.35550       -1.96670
C          2.57430        0.74310       -1.35500
N          2.59690       -0.58690       -0.71820
C          1.29000       -0.86310       -0.00240
H          0.16190        2.12880       -0.89290
H         -1.04010        1.85670        0.35880
H          0.65460        2.02470        0.80750
H         -0.69360       -0.40920        0.45500
H         -0.20910       -1.46300       -1.71860
H          2.09320       -0.81810       -2.90080
H          3.52450        0.96840       -1.83360
H          2.12180        1.58630       -0.85730
H          1.32520       -1.65260        0.73850
