14
gdb 19579	3.50547	2.53262	2.08653	4.9908	60.36	-0.2412	-0.0046	0.2366	686.7198	0.109433	-378.652996	-378.647338	-378.646394	-378.682493	23.149
O          0.00450       -0.01220        0.04750
C         -0.01420        1.16780       -0.05320
C         -1.05720        2.32210        0.02230
N         -0.02670        2.91480        0.95320
C          0.99610        2.35220       -0.00460
C          0.68460        3.04870       -1.34820
N         -0.05840        2.17750       -2.29080
C         -0.80170        3.02680       -1.32870
H         -2.07430        2.20930        0.39150
H         -0.04190        3.93580        0.93370
H          2.02540        2.26960        0.33770
H          1.28180        3.87350       -1.71880
H         -0.07680        2.60560       -3.21510
H         -1.43230        3.83370       -1.68320
