14
gdb 388	7.46103	2.22365	1.82004	2.7851	50.45	-0.2545	-0.0276	0.2269	676.5067	0.116572	-307.566593	-307.559107	-307.558163	-307.598185	24.765
C          0.10620        1.36770        0.21910
O         -0.08590       -0.01050       -0.00960
C          0.55000       -0.51440       -1.16640
C          2.06530       -0.67370       -1.04020
C         -0.13820       -1.84340       -1.46740
O          0.32770       -2.70390       -2.16610
H          1.15080        1.61340        0.45590
H         -0.20240        1.96740       -0.65160
H         -0.51740        1.64010        1.07380
H          0.32370        0.14110       -2.03020
H          2.43710       -1.23540       -1.90040
H          2.57190        0.29380       -1.00690
H          2.30850       -1.22990       -0.13030
H         -1.13620       -1.93720       -0.98630
