17
gdb 15357	6.21132	0.911	0.87635	1.7713	70.69	-0.2514	0.0512	0.3026	1306.5132	0.141134	-363.79256	-363.783835	-363.782891	-363.826571	31.474
O         -0.05140        1.22460       -0.85550
C          0.05780        0.19410        0.11090
C         -1.27490       -0.48880        0.31970
N         -1.74360       -1.28670       -0.83290
C         -1.47690       -1.95770        0.44580
C         -0.35170       -2.98420        0.47350
C         -0.82820       -4.32640        0.15500
C         -1.24580       -5.42430       -0.09860
H         -0.41280        0.80550       -1.64590
H          0.82540       -0.53820       -0.17630
H          0.38740        0.67320        1.03900
H         -2.01520        0.13800        0.81500
H         -2.74170       -1.16890       -0.97870
H         -2.34240       -2.26180        1.03180
H          0.42490       -2.69300       -0.24030
H          0.11270       -2.98700        1.46850
H         -1.60120       -6.39760       -0.33000
