23
gdb 15263	3.4933	1.2036	1.0771	1.3493	82.5	-0.2106	0.0774	0.288	1255.3988	0.210464	-330.302606	-330.292603	-330.291659	-330.337351	36.385
C          1.45830        1.53090       -0.64120
C          0.45260        0.46970       -0.17500
C          0.94120       -0.30020        1.03850
C          0.43970       -1.66030        1.41170
C         -0.61060       -2.41400        0.61630
C         -0.55470       -3.92860        0.85710
N          1.82770       -1.46820        0.97480
C          2.28800       -1.98850       -0.30260
H          2.39890        1.07360       -0.96410
H          1.06080        2.11050       -1.48020
H          1.69370        2.23120        0.16760
H         -0.49210        0.96050        0.09400
H          0.21570       -0.20100       -1.00540
H          1.20310        0.36620        1.86330
H          0.37490       -1.88000        2.47970
H         -1.59710       -2.03650        0.91630
H         -0.52460       -2.20950       -0.45430
H         -1.35590       -4.44420        0.31860
H          0.39920       -4.34990        0.52440
H         -0.66350       -4.16140        1.92200
H          1.56760       -1.95050       -1.13270
H          3.17790       -1.42860       -0.60940
H          2.58570       -3.03400       -0.16890
