13
gdb 2672	20.36739	0.83103	0.80646	1.5608	71.27	-0.2428	-0.0122	0.2306	1316.7682	0.099537	-307.259167	-307.251131	-307.250187	-307.291521	27.659
O         -0.09720        1.45270        0.01080
C          0.04110        0.04350        0.00200
C         -1.38030       -0.53530        0.01240
C         -1.39670       -1.98780        0.00490
C         -1.39630       -3.19800       -0.00170
C         -1.39560       -4.55890       -0.00910
C         -1.39470       -5.76650       -0.01540
H          0.78120        1.84370        0.00450
H          0.57310       -0.31130       -0.89300
H          0.59000       -0.32070        0.88280
H         -1.90350       -0.15400        0.89820
H         -1.92010       -0.14480       -0.85930
H         -1.39500       -6.82800       -0.02110
