17
gdb 6591	5.97571	1.30046	1.30038	4.571	74.73	-0.3058	0.0285	0.3343	990.2457	0.143055	-326.704911	-326.697639	-326.696695	-326.736109	28.183
C         -0.02000        1.46670        0.01380
C          0.00230       -0.03610        0.00030
C          0.62990       -0.96500       -1.08920
C          0.03010       -1.92460       -0.01660
C          0.64610       -0.98400        1.06360
C         -1.22680       -1.00210        0.00080
C          0.05120       -3.36550       -0.02930
N          0.06820       -4.52190       -0.03950
H          0.99630        1.87480        0.00860
H         -0.54460        1.85990       -0.86360
H         -0.52940        1.84390        0.90700
H          0.14530       -0.97590       -2.06860
H          1.71930       -0.96080       -1.17510
H          1.73670       -0.98130        1.13310
H          0.17650       -1.01240        2.05000
H         -1.83210       -1.03170        0.91020
H         -1.84580       -1.01590       -0.89970
