13
gdb 150	13.16352	3.25269	2.93666	1.7468	45.95	-0.2623	0.0976	0.3599	471.3094	0.113861	-232.328175	-232.322501	-232.321557	-232.356864	19.579
C          0.15550        1.47180       -0.07040
C         -0.19220       -0.00970        0.11600
C          0.48560       -0.60690        1.32500
C          0.98990       -1.98460        1.35260
O          1.88550       -0.88150        1.20140
H          1.23620        1.59970       -0.18280
H         -0.33190        1.88380       -0.95870
H         -0.16480        2.06590        0.79260
H         -1.27770       -0.13210        0.22490
H          0.10680       -0.57970       -0.77110
H          0.21590       -0.15220        2.28130
H          1.06190       -2.52140        2.29780
H          0.87320       -2.61510        0.47140
