16
gdb 10385	2.76973	1.94003	1.41063	3.3491	65.46	-0.2511	-0.0397	0.2114	909.524	0.128558	-383.745282	-383.737158	-383.736214	-383.778751	28.397
O         -0.15090        0.01120       -0.38680
C         -0.01820        1.12200        0.06070
C          1.28350        1.89590        0.04490
C          2.48460        1.10920       -0.56210
C          2.23540        1.79200       -1.93130
C          1.34480        2.84150       -1.22120
C          1.52890        2.60710        1.35240
O          0.79920        2.57900        2.31030
H         -0.87510        1.67910        0.49110
H          3.43390        1.40430       -0.10610
H          2.37630        0.02540       -0.51720
H          3.10690        2.17290       -2.46670
H          1.66040        1.15260       -2.60410
H          0.38440        3.10130       -1.67350
H          1.87990        3.76750       -0.98920
H          2.47840        3.19300        1.36790
