10
gdb 50	9.17136	9.04195	4.5531	1.8689	43.14	-0.2029	0.0499	0.2528	303.9808	0.082433	-210.101789	-210.097816	-210.096872	-210.12818	14.821
N         -0.00830        1.35360        0.01000
C          1.28030        1.82460       -0.00020
C          2.12220        0.73700       -0.01450
C          1.30850       -0.43110       -0.01280
C         -0.00340       -0.01840        0.00240
H         -0.83240        1.92770        0.02120
H          1.48470        2.88310        0.00350
H          3.20070        0.77340       -0.02490
H          1.64810       -1.45540       -0.02180
H         -0.92550       -0.57700        0.00840
