15
gdb 2018	5.50883	2.16849	2.07586	2.0858	57.13	-0.2433	0.0763	0.3196	679.9535	0.125078	-345.579201	-345.572843	-345.571899	-345.609389	24.234
O         -0.02040        1.36920        0.03590
C         -0.00260       -0.04430       -0.01500
C         -1.39660       -0.59080       -0.10680
C         -2.53350       -0.24670       -1.10560
C         -3.12420       -1.02100        0.09250
C         -1.95460       -2.03180        0.02000
O         -2.31030       -0.18400        1.00740
H         -0.67910        1.60750        0.69950
H          0.57310       -0.33150       -0.90150
H          0.49470       -0.48050        0.86640
H         -2.79960        0.80870       -1.15810
H         -2.52040       -0.73720       -2.08220
H         -4.16540       -1.18770        0.36640
H         -1.89050       -2.68590       -0.85310
H         -1.72080       -2.53910        0.95670
