16
gdb 11654	2.95902	2.00386	1.51627	2.3464	65.81	-0.2499	-0.041	0.2089	874.0185	0.12848	-383.676038	-383.668373	-383.667429	-383.708591	27.936
C         -0.08860        1.64310        0.07230
C          0.04060        0.13220        0.08890
C          1.12270       -0.66370       -0.69690
C          2.22500       -0.18480        0.27630
C          0.98210       -0.63970        1.08610
O          0.87140       -1.81890        0.20220
C          0.80290       -0.83310        2.55510
O          1.05520        0.01950        3.36850
H          0.87130        2.16150        0.12280
H         -0.59630        1.96600       -0.84310
H         -0.69330        1.98060        0.92000
H         -0.93090       -0.36500        0.02520
H          1.18730       -0.87540       -1.76420
H          3.08250       -0.85230        0.36090
H          2.50350        0.86830        0.29380
H          0.39360       -1.82820        2.83760
