14
gdb 14826	2.57822	2.33351	1.43151	4.9172	59.05	-0.2443	-0.0461	0.1981	851.1341	0.104812	-419.658414	-419.650689	-419.649745	-419.691803	26.038
O         -0.48090        0.54430        0.62110
C          0.14240        1.00720       -0.29980
C          1.26010        2.00400       -0.17130
C          0.96280        3.43900       -0.69540
O          1.23860        4.00470        0.59540
C          1.49070        2.72410        1.18620
C          0.57280        2.39710        2.35740
O         -0.29090        3.13270        2.74980
H         -0.08680        0.71770       -1.35030
H          2.16350        1.57170       -0.61220
H          1.64570        3.80800       -1.46810
H         -0.07290        3.61720       -1.00940
H          2.52630        2.63620        1.55060
H          0.81900        1.43830        2.86140
