20
gdb 12566	3.05642	1.87841	1.27881	0.875	71.37	-0.2405	0.0853	0.3258	997.3165	0.177805	-386.135962	-386.127796	-386.126852	-386.168845	30.622
C          0.09140        1.57860        0.06080
C         -0.01090        0.05640        0.02710
C          0.61650       -0.50150       -1.26080
O          0.17590       -1.77240       -1.70240
C         -0.03770       -2.80650       -0.75530
C          0.83870       -2.79220        0.49940
C          0.41790       -1.75260        1.54380
O          0.67050       -0.41070        1.18640
H          1.13340        1.89480       -0.05560
H         -0.50030        2.02790       -0.74160
H         -0.27080        1.95500        1.02020
H         -1.07190       -0.24240        0.07180
H          0.38890        0.17170       -2.09430
H          1.70850       -0.48870       -1.11390
H         -1.09520       -2.81010       -0.43950
H          0.12870       -3.73700       -1.30950
H          0.75110       -3.78190        0.96640
H          1.89380       -2.65920        0.23420
H         -0.65490       -1.89100        1.76880
H          0.97240       -1.91210        2.47420
