12
gdb 21335	6.31635	1.41797	1.1663	1.45	58.67	-0.2772	-0.0068	0.2705	927.4431	0.086673	-373.741645	-373.735025	-373.734081	-373.773596	22.944
N         -0.55330       -0.30240       -1.36050
C         -0.24430        0.36490       -0.46980
C          0.19460        1.22360        0.62820
C          1.51010        1.89160        0.34170
N          2.13780        2.71750        1.15660
C          3.25790        3.04030        0.45060
N          3.35930        2.47010       -0.73830
N          2.22450        1.73400       -0.79060
H         -0.56950        1.98510        0.82100
H          0.27720        0.62770        1.54400
H          4.01550        3.71250        0.82390
H          2.01520        1.17120       -1.60110
