18
gdb 11066	3.36881	2.28772	1.94148	1.388	66.54	-0.2392	0.0854	0.3246	781.4091	0.155548	-384.948547	-384.941844	-384.9409	-384.978916	27.131
C          0.03240        1.47170        0.06970
C         -0.02840       -0.03270       -0.03860
C          0.61370       -0.66780       -1.28720
O          0.12560       -2.02420       -1.26480
C         -0.69030       -2.11940       -0.08850
C          0.23550       -2.00850        1.12900
O          0.62840       -0.62220        1.10540
C         -1.39030       -0.75490       -0.04040
H          1.07130        1.81570        0.07350
H         -0.48410        1.94070       -0.77280
H         -0.43700        1.80460        0.99930
H          0.30860       -0.18100       -2.22290
H          1.70690       -0.65560       -1.21350
H         -1.29500       -3.02370       -0.15030
H         -0.26800       -2.23730        2.07780
H          1.11290       -2.65540        1.02150
H         -1.96170       -0.56930        0.87150
H         -1.99870       -0.56210       -0.92600
