20
gdb 19477	4.32417	1.44438	1.39039	1.7326	74.21	-0.232	0.089	0.321	1003.7346	0.178861	-348.983137	-348.975803	-348.974859	-349.014715	28.943
C          0.43510        0.24300       -1.50120
C         -0.04260        0.17450       -0.04520
C         -1.41600       -0.47580        0.08780
C         -1.52410       -2.04110       -0.03310
C         -1.11790       -2.10610        1.47440
C         -1.97240       -0.81730        1.50010
O         -3.29670       -1.29950        1.21150
C         -3.04300       -2.19870        0.10350
H          1.40650        0.74120       -1.57630
H          0.53960       -0.75790       -1.93320
H         -0.27450        0.79890       -2.12370
H          0.70760       -0.34960        0.55630
H         -0.09950        1.19220        0.36330
H         -2.13750        0.07560       -0.52750
H         -1.02200       -2.61730       -0.81010
H         -1.48130       -2.94810        2.06860
H         -0.05490       -1.94630        1.64850
H         -2.01130       -0.11520        2.33250
H         -3.59890       -1.87000       -0.78260
H         -3.35840       -3.21590        0.36550
