11
gdb 21500	5.38916	1.68924	1.28611	4.1427	53.25	-0.2798	-0.0698	0.21	845.4789	0.07341	-430.746293	-430.739665	-430.73872	-430.777603	23.26
N          0.36670        0.59150       -1.00910
C         -0.09180        0.19260        0.20260
O          0.38710        0.47960        1.27720
C         -1.30920       -0.68150        0.07810
N         -1.91100       -1.05600       -1.01520
C         -2.93270       -1.82330       -0.51950
N         -2.96510       -1.91870        0.78350
O         -1.87460       -1.15240        1.18810
H          1.17990        1.18260       -1.04770
H         -0.09740        0.30300       -1.85460
H         -3.66640       -2.31980       -1.13720
