21
gdb 2173	3.29579	2.61041	1.71473	0.1274	73.43	-0.2965	0.0785	0.375	830.2232	0.196419	-275.010289	-275.002547	-275.001603	-275.042396	29.683
C          0.27700        1.61130       -0.20540
C          0.02530        0.11290        0.00930
C          0.50170       -0.72610       -1.22040
C          1.57230       -1.71480       -0.69860
C          2.07340       -1.07410        0.60270
C          0.78810       -0.50300        1.22460
C          1.00620        0.41110        2.42980
H          1.34400        1.82790       -0.33440
H         -0.23550        1.95550       -1.11010
H         -0.08810        2.21500        0.63120
H         -1.05180       -0.01980        0.16160
H         -0.32680       -1.24550       -1.71070
H          0.93690       -0.05990       -1.97340
H          1.11570       -2.68570       -0.47260
H          2.36680       -1.89880       -1.42750
H          2.58910       -1.77850        1.26320
H          2.77870       -0.26060        0.38380
H          0.19420       -1.36360        1.56480
H          1.63920        1.26890        2.18090
H          0.05840        0.79860        2.81980
H          1.49740       -0.13410        3.24300
