13
gdb 458	7.74998	3.42753	2.48701	1.2483	50.7	-0.2399	0.0319	0.2718	530.0606	0.109278	-286.516879	-286.510983	-286.510039	-286.546498	20.206
C         -0.06740        1.46880        0.04960
C          0.02740       -0.01470       -0.05960
N         -0.15400       -0.70910       -1.10760
C          0.04740       -2.11320       -0.72130
C          0.38650       -2.06100        0.79180
O          0.34300       -0.65230        1.10510
H          0.88630        1.88480        0.38930
H         -0.32810        1.89210       -0.91960
H         -0.82450        1.74620        0.78970
H         -0.85920       -2.69200       -0.92820
H          0.85430       -2.55330       -1.31700
H         -0.34300       -2.57660        1.42300
H          1.38600       -2.43590        1.03040
