17
gdb 4114	3.13885	1.56976	1.26188	1.3799	68.17	-0.2471	-0.0017	0.2454	1002.2987	0.140402	-400.944263	-400.935637	-400.934692	-400.97731	31.607
C          0.72550        1.39880       -0.04530
C         -0.08310        0.11230        0.05910
C          0.37330       -1.01150       -0.93250
C          1.12530       -1.62700        0.22940
N          2.18830       -2.29680        0.38980
O          2.70880       -2.74000       -0.83830
C          0.36570       -0.81710        1.25780
O          1.04120       -0.28700        2.36240
H          1.80150        1.19240       -0.09040
H          0.45920        1.95530       -0.94930
H          0.54790        2.04110        0.82190
H         -1.15380        0.32970        0.04710
H         -0.44480       -1.63890       -1.29820
H          0.98970       -0.70850       -1.78220
H          3.50180       -3.21350       -0.56440
H         -0.50070       -1.36830        1.64370
H          1.97750       -0.24560        2.13970
