12
gdb 3430	4.93307	3.20493	2.22554	4.9285	49.68	-0.2778	0.0127	0.2905	575.5021	0.092135	-360.525379	-360.520058	-360.519113	-360.55451	19.713
O         -0.00870       -0.00470        0.02760
C          0.01410        1.18490        0.03130
O         -1.11390        1.95030        0.16630
C         -0.80860        3.34280        0.05170
C          0.71000        3.39730        0.03060
C          1.43600        2.76590        1.15160
N          1.18130        2.00900       -0.10680
H         -1.23260        3.72610       -0.88240
H         -1.26510        3.87330        0.89270
H          1.19520        4.13750       -0.59600
H          2.48190        2.99580        1.32220
H          0.87450        2.47250        2.03490
