14
gdb 4150	3.44644	1.51992	1.1188	1.3861	67.88	-0.2405	-0.0045	0.236	1015.9481	0.10555	-378.605528	-378.597633	-378.596689	-378.637936	28.837
O         -0.13900        1.37780        0.06070
N          0.03030       -0.01540        0.08370
C         -1.07880       -0.60800       -0.00920
C         -2.53790       -0.25700       -0.17830
N         -2.80420       -1.69840       -0.45670
C         -1.41790       -2.09610       -0.03470
C         -0.70260       -2.97330       -0.94640
C         -0.10310       -3.70580       -1.68590
H          0.76950        1.69460        0.11170
H         -2.99200        0.14640        0.73730
H         -2.78170        0.41090       -1.01100
H         -3.52850       -2.10850        0.12170
H         -1.37730       -2.51700        0.98170
H          0.42540       -4.34550       -2.34870
