10
gdb 21784	5.94905	1.63219	1.28079	4.2299	56.01	-0.2741	-0.1343	0.1397	832.7419	0.059026	-409.574782	-409.568359	-409.567415	-409.606006	21.696
O         -0.06110       -0.02880       -0.00250
C         -0.01110        1.16920        0.00770
C          1.26760        1.96060        0.00070
C          1.26360        3.34910        0.01180
N          2.40760        4.02590        0.00510
N          3.53890        3.33600       -0.01210
N          3.54770        2.01120       -0.02270
N          2.42950        1.30640       -0.01660
H         -0.92440        1.80300        0.02320
H          0.34820        3.93580        0.02570
