17
gdb 16890	4.05781	1.93776	1.50878	1.6982	69.59	-0.2273	0.0249	0.2522	869.886	0.143597	-363.871352	-363.864202	-363.863258	-363.902591	27.293
C         -0.02520        1.44100        0.07880
C         -0.07850       -0.04530       -0.10430
N         -1.01210       -0.75650        0.37890
C         -1.02180       -2.15780        0.09100
C         -1.07600       -2.61240       -1.35740
C          0.18540       -2.78840       -0.55640
C          1.35630       -1.85720       -0.75500
O          0.96860       -0.47920       -0.86900
H          0.88570        1.72750        0.61490
H          0.00480        1.94100       -0.89500
H         -0.90110        1.77340        0.63460
H         -1.59250       -2.73520        0.81020
H         -1.65860       -3.49570       -1.59470
H         -1.10280       -1.83350       -2.11220
H          0.46380       -3.79550       -0.25970
H          2.04730       -1.95210        0.09430
H          1.91440       -2.07500       -1.67110
