19
gdb 12482	3.15518	1.8499	1.29494	3.8603	71.58	-0.2342	0.0357	0.2699	969.7581	0.168745	-365.116724	-365.109196	-365.108252	-365.148586	29.098
O          0.02010       -0.07340       -0.18540
C         -0.04010        1.13860       -0.07350
C         -1.36750        1.87570        0.07020
C         -1.54910        2.60630        1.41640
C         -0.83730        3.96240        1.51740
C          0.69120        3.91660        1.40010
C          1.20340        3.35000        0.06750
N          1.09390        1.90420       -0.05840
H         -1.48670        2.59080       -0.75520
H         -2.13390        1.10810       -0.04900
H         -2.62140        2.77140        1.56990
H         -1.22240        1.94760        2.23110
H         -1.23000        4.62440        0.73230
H         -1.10480        4.43180        2.47130
H          1.08170        4.93600        1.50790
H          1.11940        3.32430        2.21840
H          0.68840        3.84980       -0.76590
H          2.26480        3.58810       -0.04240
H          1.94270        1.36570       -0.14150
