22
gdb 13212	3.86273	1.16552	0.96742	1.973	77.76	-0.2413	0.0724	0.3136	1271.4548	0.199653	-350.190919	-350.181587	-350.180642	-350.225293	33.73
C         -0.14590        1.56010       -0.02470
C         -0.02100        0.03420       -0.08170
C          0.82960       -0.50160       -1.24930
C          2.29970       -0.06830       -1.15070
C          0.72650       -2.02460       -1.32920
C         -0.62550       -2.64780       -1.74870
O         -0.01450       -3.35450       -2.84650
C          1.26100       -2.73080       -2.59700
H          0.81990        2.04500        0.14680
H         -0.55600        1.95800       -0.95980
H         -0.81370        1.86670        0.78640
H          0.40080       -0.33620        0.86320
H         -1.02750       -0.39790       -0.15260
H          0.41400       -0.09300       -2.18360
H          2.40620        1.01960       -1.17370
H          2.75020       -0.42860       -0.21780
H          2.88900       -0.47110       -1.98110
H          1.12180       -2.46850       -0.40930
H         -1.10090       -3.33090       -1.03490
H         -1.37510       -1.92230       -2.09650
H          1.54990       -2.05160       -3.41200
H          2.05830       -3.46990       -2.45470
