15
gdb 5765	6.14185	1.54463	1.35986	2.0897	67.95	-0.2103	0.037	0.2473	899.6275	0.121667	-358.850198	-358.843533	-358.842589	-358.882384	24.888
C          0.29410        1.62460        0.10190
C          1.13840        0.48870       -0.33290
N         -0.25260        0.26000        0.12420
C         -0.39470       -0.32000        1.39480
N          0.14290        0.04380        2.53770
C         -0.32630       -0.86210        3.46440
C         -1.15180       -1.77840        2.87170
N         -1.18760       -1.41680        1.54010
H          0.51940        2.06940        1.06560
H         -0.16270        2.27840       -0.63510
H          1.30680        0.29620       -1.38810
H          1.92790        0.17230        0.34210
H         -0.04320       -0.79850        4.50410
H         -1.70320       -2.62160        3.25190
H         -1.70920       -1.84990        0.79680
