14
gdb 18685	3.23463	2.35148	1.57021	2.6284	57.52	-0.246	-0.0397	0.2062	784.0633	0.107801	-419.66409	-419.65759	-419.656646	-419.694924	24.291
O          0.02540       -0.02360       -0.22330
C         -0.00750        1.17600       -0.09560
C         -1.29630        1.98510        0.04870
O         -1.27960        3.06730       -0.87110
C         -0.29900        4.04910       -0.59190
C          1.07980        3.47730       -0.30560
O          1.27700        2.95750        1.00400
C          1.23560        2.02120       -0.09010
H         -2.14470        1.35010       -0.21100
H         -1.40610        2.33580        1.08680
H         -0.25840        4.68960       -1.47780
H         -0.59900        4.66890        0.26890
H          1.93130        4.03290       -0.69840
H          2.16870        1.51010       -0.31550
