15
gdb 17760	3.07662	2.69738	1.86601	1.2363	63.81	-0.2061	0.0614	0.2675	744.5988	0.117767	-362.532633	-362.52588	-362.524936	-362.563106	26.492
C         -0.10550        1.48930        0.02800
C          0.00020        0.00280       -0.02370
C          0.90240       -0.98770       -0.81150
C         -0.17520       -2.01320       -0.83790
N          0.82510       -2.01380        0.28770
C         -0.07380       -1.05840        1.06810
C         -1.10820       -1.04840       -0.03630
O         -2.45090       -0.79860       -0.04600
H          0.81950        1.94870        0.39430
H         -0.32290        1.90870       -0.96110
H         -0.91870        1.78800        0.69750
H          1.78710       -0.85820       -1.42600
H         -0.33430       -2.87870       -1.47160
H         -0.12400       -0.99380        2.14860
H         -2.90010       -1.49310        0.45060
