18
gdb 10268	2.26754	1.77254	1.27405	2.0156	71.75	-0.2526	-0.0204	0.2322	1043.2931	0.153144	-381.157051	-381.148039	-381.147094	-381.190901	32.112
C         -0.36040        1.61590        0.01440
C         -0.25020        0.08780       -0.03690
C          0.81960       -0.46600        0.91110
N         -1.56380       -0.55800        0.19230
C         -2.15420       -1.32490       -0.81150
N         -1.59810       -1.49630       -1.94170
C         -2.23050       -0.41800        1.39490
O         -3.30300       -0.91100        1.66270
H          0.59560        2.06520       -0.27100
H         -1.12600        1.97350       -0.67950
H         -0.60880        1.97890        1.01730
H          0.00720       -0.20510       -1.05580
H          0.62520       -0.19830        1.95500
H          0.87440       -1.55570        0.84050
H          1.79840       -0.05700        0.64300
H         -3.11370       -1.72870       -0.48640
H         -2.18310       -2.08270       -2.53340
H         -1.66950        0.20750        2.11000
