18
gdb 10429	2.70252	1.88952	1.40445	2.6098	67.88	-0.2437	-0.0327	0.211	957.3742	0.15168	-384.935327	-384.926616	-384.925672	-384.969066	30.731
C         -0.31120        1.62170        0.05210
C          0.09780        0.15070        0.17890
C          0.67050       -0.42090       -1.11230
C          0.68520       -1.97540       -1.24050
C         -0.33390       -1.75140       -2.37260
O         -0.24100       -0.31690       -2.23690
C          2.01800        0.18480       -1.48230
O          2.83160        0.58100       -0.68870
H          0.55680        2.26010       -0.13670
H         -1.02030        1.75170       -0.77010
H         -0.78680        1.97000        0.97320
H          0.85780        0.03030        0.95910
H         -0.76910       -0.45440        0.46770
H          1.63670       -2.41030       -1.55270
H          0.32540       -2.49960       -0.35430
H         -0.02370       -2.08680       -3.36870
H         -1.34960       -2.11460       -2.17670
H          2.20070        0.20310       -2.58120
