15
gdb 1592	3.53406	2.29991	1.52019	2.152	62.92	-0.2436	-0.0181	0.2255	812.1279	0.121273	-308.509454	-308.500986	-308.500042	-308.542719	29.461
C          0.50160        1.73590       -0.28940
C          0.05380        0.31320        0.08120
C          0.33110       -0.65110       -0.98000
C          0.58410       -1.43120       -1.85920
C          0.65970       -0.14130        1.43650
C          0.39880       -1.57250        1.85650
O          1.28060        0.63390        2.12080
H          1.58080        1.76550       -0.45460
H         -0.00120        2.06410       -1.20190
H          0.26590        2.42520        0.52320
H         -1.03530        0.31730        0.25110
H          0.79870       -2.12040       -2.63820
H         -0.66350       -1.82040        1.75990
H          0.94120       -2.25430        1.19430
H          0.72770       -1.71720        2.88590
