17
gdb 19842	3.35397	2.54212	1.81403	1.3387	66.63	-0.2184	0.0828	0.3012	762.9066	0.144767	-363.802762	-363.796624	-363.795679	-363.832594	25.515
C          0.07040        1.58690       -0.17940
C          1.30740        0.74650        0.02030
O          2.04860        0.78200        1.20470
C          1.26880        0.87660        2.39280
C          0.21980       -0.22000        2.46720
C         -1.22470        0.10080        2.25950
N         -0.46780       -0.57910        1.22080
C         -0.04040        0.07440        0.00880
H         -0.25850        2.24330        0.61660
H         -0.12160        1.97720       -1.17290
H          1.98310        0.59840       -0.81430
H          1.98190        0.77670        3.21410
H          0.81710        1.87610        2.46920
H          0.48860       -1.07950        3.07720
H         -1.99570       -0.49900        2.73580
H         -1.48890        1.14750        2.11920
H         -0.31400       -0.49600       -0.87360
