14
gdb 361	9.53439	2.13951	1.80586	1.6323	50.2	-0.268	0.0192	0.2871	694.4729	0.118017	-307.61045	-307.602997	-307.602053	-307.642398	24.367
C         -0.06010        1.50860       -0.08090
C          0.03980       -0.00780        0.06420
C          0.79060       -0.42940        1.31090
O          1.27400        0.31360        2.12770
O          0.85420       -1.77540        1.39840
C          1.54610       -2.28220        2.54570
H          0.93250        1.96310       -0.13150
H         -0.60810        1.77070       -0.99010
H         -0.57710        1.95020        0.77480
H         -0.95150       -0.47510        0.09890
H          0.54380       -0.46230       -0.79710
H          1.50410       -3.36840        2.46280
H          2.58400       -1.93930        2.55450
H          1.06170       -1.95020        3.46770
