13
gdb 3422	4.77715	2.87497	2.09789	2.9558	53.18	-0.2431	-0.0304	0.2127	615.3188	0.102667	-344.462681	-344.457025	-344.456081	-344.492164	21.312
O          0.03890       -0.00450        0.00830
C         -0.01000        1.19700       -0.04180
C         -1.27500        2.06540       -0.11440
C         -0.83710        3.37210       -0.81640
C          0.66550        3.43680       -0.58900
O          1.02480        3.24360        0.77480
C          1.17330        2.12910       -0.12950
H         -2.06830        1.52670       -0.63470
H         -1.61920        2.25560        0.90710
H         -1.03810        3.32510       -1.89220
H         -1.34130        4.26020       -0.42510
H          1.29300        4.12590       -1.14830
H          2.17960        1.75590       -0.28760
