14
gdb 10110	2.31066	1.63091	1.00261	4.2764	60.21	-0.2712	-0.0169	0.2543	1097.4694	0.106023	-415.874788	-415.866124	-415.86518	-415.909479	28.995
N         -0.22060        1.45370       -0.07220
C         -0.04690        0.00780       -0.04180
C         -1.43440       -0.64650       -0.01020
O         -2.11360       -0.30830       -1.22460
C         -3.37920        0.17750       -1.13210
O         -3.99830        0.51010       -2.09190
C         -1.34970       -2.10920        0.11480
N         -1.26270       -3.25420        0.23640
H          0.65550        1.91670        0.14190
H         -0.49120        1.75090       -1.00410
H          0.51490       -0.41820       -0.88680
H          0.47660       -0.27440        0.87700
H         -1.98730       -0.24550        0.84830
H         -3.74380        0.22850       -0.08940
