18
gdb 8298	7.23202	0.92184	0.86948	3.0691	69.89	-0.2411	-0.02	0.2211	1329.8643	0.151249	-384.944034	-384.93541	-384.934466	-384.97798	30.865
C         -0.23550        1.42400       -0.14240
C          0.18190       -0.03550       -0.09220
O          0.38170       -0.39920        1.26350
C          0.75100       -1.73680        1.44040
C          2.23440       -2.12590        1.11450
C          2.30990       -2.73450        2.52420
O          3.07170       -3.48250        3.06370
C          0.97120       -2.10070        2.93060
H          0.54020        2.06050        0.29270
H         -0.40160        1.73700       -1.17730
H         -1.16030        1.57790        0.42070
H         -0.59330       -0.67800       -0.54200
H          1.10710       -0.19360       -0.66970
H          0.03770       -2.40980        0.94270
H          2.44240       -2.79740        0.27840
H          2.86850       -1.23600        1.03230
H          1.12070       -1.19550        3.52910
H          0.24420       -2.74530        3.42880
