15
gdb 14319	5.55985	1.6806	1.38845	4.5043	68.97	-0.2413	-0.0277	0.2135	865.3119	0.121382	-362.682019	-362.675779	-362.674835	-362.712227	24.753
O          0.02780       -0.04810        0.01650
C          0.00260        1.16130        0.02850
N         -1.16190        1.94800       -0.03670
C         -0.83050        3.33160       -0.20350
C         -0.85060        4.43980        0.92840
C          0.65860        4.74760        0.59810
C          0.65450        3.36160       -0.00090
C          1.13510        2.13200        0.19630
H         -1.99870        1.52940       -0.41240
H         -1.19220        3.75150       -1.14890
H         -1.56580        5.25450        0.79960
H         -0.95710        3.98740        1.91500
H          0.75740        5.54990       -0.13870
H          1.33960        4.93310        1.42950
H          2.10540        1.81840        0.55410
