19
gdb 17656	3.19415	1.88025	1.55483	2.6691	70.27	-0.2387	0.0731	0.3117	908.7944	0.165774	-365.021438	-365.013409	-365.012465	-365.053901	30.094
C         -0.22690        1.57640        0.00260
C         -0.00570        0.07120       -0.06420
C          1.02360       -0.41490       -1.12150
C          1.86820       -0.83970        0.09300
O          0.86190       -0.37400        1.02030
C         -1.32250       -0.68010       -0.03400
C         -1.39840       -2.07660        0.45100
N         -1.94970       -0.97260        1.26340
H          0.72910        2.10730        0.01210
H         -0.80630        1.91740       -0.86230
H         -0.78000        1.84120        0.90900
H          0.67500       -1.22970       -1.75740
H          1.45510        0.37280       -1.74160
H          2.05080       -1.91570        0.19570
H          2.81600       -0.30570        0.22700
H         -2.02700       -0.35880       -0.80050
H         -2.13790       -2.75490        0.03500
H         -0.48150       -2.54460        0.79580
H         -1.26750       -0.76040        1.99100
