19
gdb 3077	9.23702	0.96152	0.92435	1.311	68.07	-0.2614	0.0809	0.3423	1262.8933	0.171138	-310.902197	-310.89382	-310.892876	-310.935409	29.819
O         -0.09700        1.40320       -0.25030
C          0.00370        0.01550        0.03410
C         -1.39220       -0.58650       -0.04750
C         -1.41440       -2.09040        0.25000
C         -2.80360       -2.68790        0.17250
C         -3.36660       -3.14270       -1.15130
C         -2.99530       -4.15800       -0.09640
H          0.78450        1.78430       -0.20350
H          0.66960       -0.49090       -0.68470
H          0.42480       -0.15530        1.03920
H         -2.04110       -0.05400        0.65880
H         -1.79910       -0.39610       -1.04760
H         -0.75880       -2.61630       -0.45800
H         -0.99210       -2.27340        1.24820
H         -3.51930       -2.23680        0.85630
H         -4.41770       -2.97330       -1.35660
H         -2.72740       -3.06620       -2.02540
H         -2.10880       -4.76110       -0.26460
H         -3.79360       -4.68000        0.41960
