19
gdb 14985	4.5164	1.39221	1.13422	2.0282	72.78	-0.2449	0.0257	0.2705	1081.7036	0.167236	-365.086036	-365.078184	-365.07724	-365.11835	29.348
C         -0.01590        1.56690        0.05270
C          0.02300        0.03830        0.01080
C          0.67600       -0.51730       -1.26260
C          0.84130       -2.04200       -1.21680
C          1.26220       -2.54220       -2.59170
O          0.34490       -2.10510       -3.60760
C         -0.21130       -0.88550       -3.41190
N         -0.10640       -0.09690       -2.43020
H          0.99620        1.98780        0.05470
H         -0.53970        1.95800       -0.82280
H         -0.52630        1.92390        0.95240
H          0.57040       -0.34930        0.87980
H         -0.99650       -0.36260        0.07620
H          1.67220       -0.05720       -1.35500
H          1.58400       -2.34140       -0.46970
H         -0.11240       -2.50600       -0.93650
H          2.26250       -2.17170       -2.85140
H          1.27510       -3.63300       -2.65350
H         -0.82620       -0.62510       -4.27230
