18
gdb 12967	2.30096	2.21271	1.72347	2.1624	67.7	-0.2263	0.0737	0.3	888.7688	0.152126	-384.894782	-384.886535	-384.88559	-384.926714	31.465
C          0.11600        1.62240       -0.39300
C          0.22010        0.12660       -0.18330
C          1.49180       -0.66190       -0.35790
O          2.62000        0.08220        0.11560
C          2.13830       -0.02010        1.49350
C          2.21730        1.25930        2.30070
C          0.82300       -0.62590        0.99540
O          0.15540       -1.63210        1.66950
H          1.09800        2.09070       -0.30380
H         -0.26310        1.83490       -1.39820
H         -0.56400        2.09560        0.32390
H         -0.63110       -0.44810       -0.54910
H          1.66630       -1.45050       -1.08040
H          2.70810       -0.81410        1.99630
H          1.62230        2.06420        1.86660
H          1.85760        1.06990        3.31830
H          3.25640        1.59660        2.37280
H         -0.62940       -1.25380        2.08020
