17
gdb 10486	3.24158	1.47088	1.17808	4.6589	68.07	-0.2822	0.0274	0.3096	1049.32	0.140866	-363.862212	-363.85369	-363.852746	-363.895637	30.546
C          0.83400       -1.72400        0.06940
C         -0.07050       -0.76640       -0.70870
C         -1.49420       -0.65750       -0.18730
C         -2.40070        0.30590       -0.95830
C         -1.85940        1.66310       -1.03930
N         -1.42380        2.73080       -1.10910
C         -2.15720       -1.73970        0.55520
O         -1.65410       -0.58100        1.23000
H          1.86850       -1.62450       -0.26940
H          0.80080       -1.49920        1.13850
H          0.54220       -2.76930       -0.07220
H          0.36260        0.24110       -0.69050
H         -0.11470       -1.05710       -1.76640
H         -2.55650       -0.06550       -1.97830
H         -3.37910        0.34900       -0.47060
H         -3.24280       -1.82890        0.52720
H         -1.62490       -2.66500        0.76050
