13
gdb 8772	4.51721	1.26659	1.18193	3.4157	55.21	-0.3019	-0.0659	0.236	984.9846	0.093331	-435.742711	-435.734584	-435.73364	-435.775667	28.284
O          0.25600        1.51670        0.01490
C          0.08910        0.12680        0.03310
C          0.67850       -0.48400       -1.23090
O          1.10020        0.21460       -2.11680
C          0.81030       -0.43990        1.28130
O          2.13990        0.00910        1.31020
C          0.07270       -0.07710        2.51160
N         -0.50260        0.20090        3.47370
H          0.58920        1.72840       -0.87380
H         -0.97650       -0.15700        0.07420
H          0.67880       -1.58980       -1.29820
H          0.83770       -1.53460        1.22240
H          2.09560        0.96270        1.14460
