13
gdb 17157	4.25345	2.03206	1.651	4.5716	62.71	-0.2616	-0.0121	0.2495	762.4169	0.095921	-361.373347	-361.367402	-361.366458	-361.403397	23.073
N         -0.01270       -1.07670        0.04460
C         -0.03050        0.07910        0.04970
C         -0.02720        1.51690        0.01960
O         -0.69930        2.27770        1.05950
C         -0.13820        3.28760        0.16280
C          1.18620        2.50590       -0.10960
C          1.01960        2.61800       -1.63950
C         -0.43640        2.48790       -1.14520
H         -0.29810        4.33770        0.39510
H          2.08080        2.49370        0.51100
H          1.29370        3.57650       -2.08580
H          1.40920        1.78990       -2.23560
H         -1.37570        2.45540       -1.69500
