18
gdb 13678	5.12547	0.94614	0.91125	4.4017	69.65	-0.2734	0.0112	0.2845	1301.7209	0.152424	-384.950015	-384.941232	-384.940288	-384.984503	30.764
C          0.14930        1.41200       -0.30000
C          0.16920       -0.06110        0.05280
C          1.46490       -0.78370        0.32580
C          0.46580       -0.58380        1.44290
C          0.77250        0.32860        2.60050
O          1.46910       -0.38720        3.63740
C          2.80330       -0.24560        3.71210
O          3.47810       -0.84670        4.49290
H          0.94900        1.96880        0.19710
H          0.28630        1.54640       -1.37830
H         -0.80340        1.87910       -0.02680
H         -0.57930       -0.64020       -0.48190
H          1.61160       -1.78330       -0.06710
H          2.36920       -0.18170        0.34990
H         -0.09540       -1.46390        1.74380
H          1.36830        1.19400        2.28780
H         -0.14180        0.70070        3.07160
H          3.19820        0.49420        2.98700
