15
gdb 18863	3.49146	2.53462	2.12767	1.678	63.85	-0.2141	0.0025	0.2166	696.6242	0.120876	-362.611268	-362.605257	-362.604313	-362.64104	24.354
O         -0.07280        1.51070       -0.01090
C         -0.03500        0.11060       -0.08000
C         -1.35950       -0.60770       -0.06100
C         -2.00170       -0.76040       -1.41610
C         -1.59490        0.13520       -2.53310
C         -0.26330        0.14960       -2.59210
C          0.25830       -0.65590       -1.43640
N         -0.86160       -1.63400       -1.06180
H          0.81650        1.83550        0.16130
H          0.60470       -0.31770        0.70130
H         -1.89250       -0.89390        0.84060
H         -2.97090       -1.25040       -1.42280
H         -2.29300        0.68360       -3.15090
H          0.35730        0.74880       -3.24510
H          1.23810       -1.11990       -1.54400
