13
gdb 15472	2.91732	2.09825	1.45884	4.3065	58.07	-0.2715	-0.0553	0.2162	838.1395	0.095641	-398.623173	-398.616146	-398.615201	-398.65504	24.936
O          0.00960        0.00220       -0.09210
C         -0.03760        1.19130        0.01360
C         -1.25950        2.09370        0.16670
C         -0.64300        3.45450        0.49520
O          0.64550        3.44690       -0.14700
C          1.19230        2.15750       -0.00820
C          1.97520        2.00790        1.23200
N          2.56290        1.90260        2.22140
H         -1.79020        2.11260       -0.79160
H         -1.93880        1.69610        0.92310
H         -1.19150        4.30560        0.09090
H         -0.52370        3.59030        1.57850
H          1.83020        1.93840       -0.86930
