15
gdb 15846	2.59672	2.07431	1.32842	5.1476	66.17	-0.2674	-0.0454	0.222	919.1758	0.117742	-362.687475	-362.67964	-362.678696	-362.720081	28.189
C         -0.30870        1.50010       -0.00740
C          0.01600        0.01180       -0.03170
C          1.26180       -0.35790       -0.89880
C          2.06580       -0.55360        0.38880
O          3.22110       -0.62400        0.66330
C          0.76030       -0.52760        1.25190
C          0.74130        0.24360        2.47620
N          0.72760        0.88560        3.43790
H          0.57860        2.10040        0.22150
H         -0.68830        1.81940       -0.98270
H         -1.06580        1.72940        0.74760
H         -0.87630       -0.57120       -0.26470
H          1.15920       -1.29540       -1.45490
H          1.64320        0.40960       -1.57700
H          0.47170       -1.56330        1.46560
