17
gdb 14647	6.6707	0.70177	0.67119	3.5805	74.96	-0.2428	0.027	0.2698	1662.7952	0.140473	-363.868924	-363.859081	-363.858136	-363.907013	32.141
C          0.07630        1.44270       -0.06940
C         -0.01400       -0.01050       -0.06920
C         -0.07600       -1.21300       -0.08040
C         -0.19740       -2.66520       -0.07280
C         -1.57300       -3.12980        0.45810
N         -1.69600       -4.57700        0.51260
C         -2.05450       -5.31790       -0.56970
O         -2.33040       -4.86260       -1.65950
H          0.32020        1.82630       -1.06630
H         -0.87090        1.90010        0.23710
H          0.85160        1.79540        0.62000
H         -0.07210       -3.06690       -1.08490
H          0.59530       -3.10960        0.54330
H         -1.74380       -2.72560        1.45930
H         -2.35740       -2.75150       -0.20090
H         -1.43220       -5.06130        1.35540
H         -2.07840       -6.40220       -0.34040
