18
gdb 11797	4.00004	1.72831	1.59482	2.1034	66.6	-0.2493	0.072	0.3213	874.3996	0.155356	-384.919564	-384.912477	-384.911533	-384.950763	28.
O          0.02220        1.37380       -0.25880
C          0.02990       -0.00110        0.08670
C         -1.37130       -0.55120        0.13910
C         -1.73970       -2.05390        0.13660
C         -2.96020       -1.43970       -0.58290
C         -3.67800       -0.63510        0.52020
C         -2.41240        0.07420        1.09770
O         -2.06560       -0.43390       -1.15780
H         -0.48790        1.44530       -1.07430
H          0.62770       -0.59160       -0.62440
H          0.50410       -0.07950        1.07130
H         -1.10900       -2.62920       -0.54250
H         -1.88360       -2.56940        1.08980
H         -3.55340       -1.97840       -1.32150
H         -4.39960        0.06560        0.09540
H         -4.19380       -1.27200        1.24390
H         -2.21570       -0.16810        2.14560
H         -2.43500        1.15880        0.98760
