16
gdb 6690	6.07669	0.68895	0.66316	2.1731	71.29	-0.2527	-0.0321	0.2206	1656.3325	0.126751	-383.717729	-383.70809	-383.707146	-383.754377	32.282
C          0.01870        1.48200       -0.36330
C          0.07340        0.01380        0.08280
O          0.86690       -0.15150        1.25540
C         -1.27240       -0.54710        0.25240
C         -2.38660       -0.96880        0.43430
C         -3.71220       -1.54470        0.60330
C         -3.86510       -2.87920       -0.13300
O         -4.87090       -3.21500       -0.69510
H          1.03630        1.86450       -0.47620
H         -0.51000        1.58100       -1.31560
H         -0.50600        2.08920        0.38150
H          0.60100       -0.56600       -0.68430
H          0.38380        0.24580        1.98860
H         -3.89920       -1.75140        1.66860
H         -4.50900       -0.87410        0.26550
H         -2.96360       -3.52780       -0.09350
