17
gdb 16112	4.33277	1.66702	1.45363	1.8189	74.67	-0.2331	0.0403	0.2733	905.3857	0.143142	-326.678036	-326.67091	-326.669965	-326.708998	28.302
C          0.05240       -1.18580       -0.19460
C          0.04430        0.01220       -0.09120
C         -0.01890        1.44010        0.05200
C          0.24540        2.34140       -1.11330
N          1.24570        2.22530       -0.05200
C          1.16320        3.29200        0.96340
C         -0.31000        3.42200        1.41620
C         -0.88630        2.01250        1.17630
H          0.07620       -2.24280       -0.29210
H          0.54080        1.90040       -2.06000
H         -0.34310        3.25230       -1.19870
H          1.80000        2.98590        1.80010
H          1.57240        4.22270        0.55800
H         -0.39420        3.73510        2.45960
H         -0.84210        4.16710        0.81820
H         -1.94890        2.02180        0.91870
H         -0.76880        1.38050        2.06210
