20
gdb 10482	2.56446	1.63607	1.20968	0.5547	80.07	-0.2593	0.0528	0.3121	1089.3043	0.175129	-311.829731	-311.820601	-311.819657	-311.863459	34.286
C          0.90580       -0.04250       -1.20130
C         -0.03360       -0.13830        0.00730
C          0.61810       -0.70210        1.26140
C          1.75490        0.13290        1.85660
C          1.34040        1.47200        2.26730
C          0.98480        2.57230        2.59660
C         -0.25160       -1.45660        2.23450
C          0.74990       -2.20160        1.38150
H          1.34530       -1.01720       -1.43940
H          0.36540        0.30770       -2.08610
H          1.72630        0.66010       -1.02350
H         -0.44300        0.85360        0.23430
H         -0.88930       -0.77320       -0.25240
H          2.17280       -0.39590        2.72230
H          2.57590        0.21570        1.13250
H          0.67830        3.54430        2.89380
H         -0.04420       -1.35460        3.29460
H         -1.30520       -1.56530        1.99990
H          0.37360       -2.81090        0.56630
H          1.63160       -2.60930        1.86550
