17
gdb 5779	5.8584	1.35679	1.20711	1.6766	74.94	-0.1932	0.0459	0.2392	1014.5104	0.144536	-326.747922	-326.740796	-326.739852	-326.78034	27.469
C         -0.12570        1.44070       -0.18520
C          1.28230        0.97630        0.06620
C          0.14940       -0.03040        0.05440
C         -0.29600       -0.70960        1.29340
C         -0.35230       -0.19580        2.57440
N         -0.82720       -1.17900        3.40820
C         -1.07850       -2.31710        2.68960
C         -0.75910       -2.05690        1.37750
H         -0.63830        1.97980        0.60430
H         -0.39330        1.75710       -1.18780
H          1.98070        0.97410       -0.76390
H          1.73320        1.19790        1.02770
H          0.09780       -0.66340       -0.82600
H         -0.09690        0.77810        2.96060
H         -0.96830       -1.07550        4.39720
H         -1.45870       -3.20560        3.16720
H         -0.84390       -2.75080        0.55450
