14
gdb 9111	5.03576	0.98382	0.82723	0.8562	68.13	-0.2611	-0.0942	0.1668	1314.2675	0.105622	-415.896311	-415.887934	-415.88699	-415.929732	28.403
C         -0.10470        1.66790       -0.70370
N         -0.41170        0.26490       -0.89150
C          0.16210       -0.56660       -0.13240
N         -0.08930       -1.92730       -0.26110
C          0.48490       -2.89210        0.51400
O          1.28330       -2.71570        1.41230
C          0.01920       -4.30260        0.14420
O         -0.76910       -4.52830       -0.73650
H          0.29560        2.08010       -1.63690
H         -1.02860        2.21590       -0.48680
H          0.61710        1.86270        0.10430
H          0.87690       -0.33590        0.66340
H         -0.74080       -2.23030       -0.97550
H          0.48500       -5.08580        0.77260
