20
gdb 17310	2.57044	2.38093	1.64233	0.2874	78.4	-0.1996	0.0831	0.2827	901.7261	0.176767	-311.79557	-311.787664	-311.78672	-311.827226	31.265
C         -0.20870        1.60720       -0.03580
C          0.10610        0.11220        0.04130
C          1.35560       -0.67050       -0.31970
C          2.71400       -0.13850        0.20610
C          2.65180        1.15480        0.96640
C          2.15860       -0.11150        1.62080
C          0.80450       -0.69400        1.10690
C          0.15310       -1.81640        1.86330
H          0.38650        2.11970       -0.79760
H         -1.26090        1.74550       -0.30400
H         -0.05420        2.11740        0.91830
H         -0.74370       -0.47450       -0.30990
H          1.31320       -1.46220       -1.05920
H          3.65280       -0.56000       -0.12970
H          3.61750        1.47740        1.34810
H          2.01050        1.97580        0.68420
H          2.61960       -0.49470        2.52290
H         -0.31400       -1.45700        2.78970
H         -0.62640       -2.29750        1.26360
H          0.88310       -2.58600        2.14330
