16
gdb 7922	3.53964	1.69234	1.19774	1.7027	64.63	-0.2417	-0.0419	0.1997	972.0942	0.128914	-383.797226	-383.789361	-383.788417	-383.83032	28.588
C         -0.47480        1.49560        0.08230
C          0.14540        0.10590       -0.02730
C          1.05700       -0.15490       -1.24020
C          2.07150       -1.21390       -0.79360
O          2.75830       -1.87610       -1.52550
C          2.06700       -1.28280        0.73460
C          1.01890       -0.26810        1.18290
O          0.89920        0.18490        2.29140
H          0.29910        2.26960        0.04620
H         -1.17820        1.68000       -0.73450
H         -1.00430        1.60000        1.03210
H         -0.65870       -0.64730       -0.03490
H          0.54030       -0.47050       -2.14910
H          1.62540        0.75160       -1.49340
H          1.78490       -2.29140        1.06130
H          3.05230       -1.08030        1.16400
