18
gdb 7653	5.01531	1.26021	1.07182	3.7661	69.56	-0.2322	0.0564	0.2886	1116.6467	0.154573	-381.151475	-381.14301	-381.142066	-381.18477	30.805
C          0.21040        1.52680        0.08240
C         -0.05750        0.03390       -0.04270
C          0.95580       -0.76960       -0.91510
N          1.42830       -1.43760        0.30170
C          0.39800       -0.83980        1.16500
C          1.95020       -2.70760        0.32270
N          1.94260       -3.30300        1.57940
O          2.35630       -3.26880       -0.67900
H          1.25150        1.71580        0.36760
H          0.02540        2.04030       -0.86700
H         -0.43450        1.98370        0.84070
H         -1.09740       -0.14400       -0.32460
H          0.51460       -1.46260       -1.63860
H          1.72150       -0.17250       -1.42220
H          0.79390       -0.28040        2.02240
H         -0.34420       -1.56210        1.52540
H          2.01610       -2.69760        2.38330
H          2.53270       -4.12010        1.62290
