17
gdb 7115	3.68369	1.06444	0.88505	2.2159	67.7	-0.2541	-0.0313	0.2229	1302.0527	0.139734	-401.019485	-401.010266	-401.009322	-401.054886	31.204
C          0.87170        1.27800       -0.24130
C          0.26210       -0.08920        0.00150
O          0.47310       -0.87510       -1.18640
C          0.01960       -2.14280       -1.16490
N         -0.58120       -2.62450       -0.15740
C          0.36010       -2.83000       -2.47200
C          1.86300       -2.95800       -2.68520
O          2.40250       -3.97040       -3.04450
H          1.94530        1.19970       -0.43550
H          0.40190        1.77010       -1.09770
H          0.72700        1.90920        0.64040
H          0.72140       -0.60230        0.85240
H         -0.81290       -0.03330        0.20020
H         -0.83920       -3.59540       -0.31740
H         -0.09520       -3.81920       -2.53510
H         -0.02300       -2.20740       -3.29210
H          2.43330       -2.02620       -2.48850
