13
gdb 1710	4.36687	2.27267	1.91423	2.3075	55.53	-0.2539	0.0194	0.2733	690.8396	0.099614	-344.385369	-344.378213	-344.377269	-344.416638	25.613
O          0.02050        1.44580       -0.08950
C          0.01430        0.03590       -0.00050
C          0.13120       -0.56110        1.43840
O         -1.17880       -1.14680        1.34660
C         -1.43260       -0.51690        0.07910
C          0.88620       -0.57520       -0.99270
C          1.63840       -1.05040       -1.80130
H          0.91270        1.72920       -0.31630
H          0.91220       -1.31100        1.59930
H          0.18980        0.22460        2.20200
H         -2.16700        0.29440        0.14900
H         -1.72830       -1.23260       -0.69380
H          2.29180       -1.47940       -2.52080
