15
gdb 20573	4.58491	1.58641	1.28105	4.1326	61.88	-0.255	0.0003	0.2553	930.6951	0.12013	-396.006493	-395.998722	-395.997778	-396.039675	27.381
C          0.17340        1.52630        0.18320
C         -0.08690        0.02780       -0.02170
O         -1.47430       -0.23810       -0.11740
C          0.64990       -0.49010       -1.22610
N          0.00170       -0.94880       -2.28520
N          1.01240       -1.27860       -3.12530
C          2.19840       -1.01200       -2.54500
N          2.01090       -0.50950       -1.34130
H          1.24270        1.71880        0.30760
H         -0.19040        2.09540       -0.67810
H         -0.35870        1.86860        1.07450
H          0.29530       -0.51070        0.85710
H         -1.66650       -0.44840       -1.03900
H          0.81010       -1.67260       -4.02930
H          3.14730       -1.19800       -3.02560
