23
gdb 2720	12.05905	0.72076	0.70066	0.0603	79.31	-0.2992	0.091	0.3902	1707.527	0.216981	-276.206318	-276.19656	-276.195616	-276.241061	34.275
C         -0.05140        1.59360       -0.04320
C         -0.00840        0.06350       -0.01410
C          0.72360       -0.49660        1.21060
C          0.77220       -2.02770        1.24880
C          1.50410       -2.58640        2.47380
C          1.55340       -4.11780        2.51330
C          2.28650       -4.66600        3.74060
H          0.95910        2.01750       -0.05790
H         -0.58000        1.96410       -0.92730
H         -0.56190        1.99190        0.84080
H         -1.03240       -0.33290       -0.03540
H          0.47750       -0.30760       -0.92630
H          1.74830       -0.09950        1.23270
H          0.23770       -0.12520        2.12390
H         -0.25270       -2.42400        1.22640
H          1.25820       -2.39840        0.33540
H          2.52920       -2.19040        2.49680
H          1.01850       -2.21610        3.38770
H          0.52900       -4.51290        2.49080
H          2.03910       -4.48720        1.60020
H          2.30570       -5.76040        3.74160
H          3.32420       -4.31500        3.77090
H          1.80240       -4.34080        4.66840
