16
gdb 5267	6.72929	1.01243	0.93491	1.4303	66.34	-0.2212	0.0207	0.2419	1202.2561	0.131123	-383.760391	-383.752646	-383.751702	-383.79335	27.787
O         -0.07390        1.46410        0.05440
C          0.02600        0.05040        0.11470
C         -1.37290       -0.52280       -0.12180
C         -1.40440       -2.01930       -0.05150
C         -1.58040       -2.89030       -1.08210
O         -1.53490       -4.17950       -0.65000
C         -1.32300       -4.13350        0.69100
C         -1.23420       -2.84770        1.11490
H          0.80330        1.83430        0.18820
H          0.71460       -0.34090       -0.65050
H          0.40320       -0.28460        1.09410
H         -2.04790       -0.08670        0.62420
H         -1.72460       -0.18180       -1.10110
H         -1.75060       -2.75510       -2.13790
H         -1.26530       -5.08770        1.18840
H         -1.07580       -2.51630        2.12990
