18
gdb 6023	2.65475	1.77178	1.40087	2.445	68.04	-0.273	0.0232	0.2962	964.0427	0.15249	-381.135943	-381.126624	-381.12568	-381.1691	34.641
C          0.10940        1.56350       -0.09570
C          0.04900        0.03670       -0.01190
O          0.73960       -0.44790        1.12050
C         -1.41140       -0.53310        0.02160
C         -1.37330       -2.06990       -0.02470
N         -2.01190       -0.11040        1.29920
C         -2.17900       -0.03530       -1.14000
N         -2.79430        0.36970       -2.03180
H          1.15580        1.87770       -0.10370
H         -0.37630        1.94020       -1.00040
H         -0.36530        2.02720        0.77620
H          0.55020       -0.39150       -0.88710
H          0.14530       -0.28710        1.86880
H         -0.76300       -2.43180        0.80370
H         -2.38210       -2.48640        0.05070
H         -0.93360       -2.41320       -0.96390
H         -2.31000        0.85900        1.25430
H         -2.83910       -0.66320        1.50000
