21
gdb 13728	4.86687	0.89057	0.81475	0.6292	76.58	-0.2233	0.0851	0.3084	1464.3723	0.187117	-366.216095	-366.20653	-366.205586	-366.250992	33.777
C          0.01710        1.32100        0.15010
O         -0.02410       -0.03100       -0.23560
C         -1.24360       -0.65900        0.09220
C         -1.17640       -2.11220       -0.36790
C         -2.47880       -2.85350       -0.14460
C         -2.51010       -4.33770       -0.00330
N         -2.86150       -3.48380        1.12450
C         -1.95140       -3.46330        2.25900
H          0.99270        1.71680       -0.14260
H         -0.76940        1.91280       -0.34530
H         -0.10230        1.44060        1.23900
H         -1.42600       -0.60250        1.17910
H         -2.08780       -0.14310       -0.39900
H         -0.94360       -2.12150       -1.43970
H         -0.34060       -2.60910        0.13310
H         -3.33090       -2.38400       -0.63770
H         -3.31660       -4.92720       -0.43260
H         -1.54520       -4.84500        0.02510
H         -0.88660       -3.57610        2.00190
H         -2.07430       -2.52470        2.80970
H         -2.21870       -4.28440        2.93220
