21
gdb 13635	3.47517	1.22113	1.20355	0.8512	75.71	-0.2457	0.0733	0.319	1163.2774	0.187246	-366.226129	-366.216464	-366.215519	-366.261079	34.641
C         -1.29140        1.91750       -0.39340
O         -1.14310        0.87440        0.53990
C         -1.26810       -0.43470       -0.00850
C         -0.07420       -0.83150       -0.87940
C         -1.57650       -1.33150        1.18170
N         -1.28130       -2.76800        1.10030
C         -0.63180       -1.96070        2.14820
C          0.87560       -1.86070        2.15290
H         -1.29000        2.85530        0.16850
H         -0.47240        1.95130       -1.12660
H         -2.24210        1.83820       -0.94530
H         -2.16970       -0.45930       -0.64790
H         -0.08230       -1.91060       -1.04820
H         -0.11800       -0.33030       -1.85040
H          0.86580       -0.55270       -0.39770
H         -2.53100       -1.04870        1.62580
H         -2.04720       -3.32000        1.47450
H         -1.05190       -2.05650        3.15030
H          1.29050       -1.97610        1.15210
H          1.19900       -0.89610        2.55790
H          1.30170       -2.64960        2.78280
