18
gdb 2577	2.91128	2.65812	1.76506	2.2564	63.32	-0.246	0.0656	0.3116	793.4395	0.160118	-326.950279	-326.942327	-326.941383	-326.982336	29.25
C          0.08070        0.62050        0.93310
C          0.31600       -0.73320        0.24790
C          0.67150       -0.63920       -1.22720
C          1.97190        0.06840       -1.58690
O          1.83020        1.47770       -1.54850
C          0.14730       -1.67100       -2.15780
N         -0.39590       -0.29830       -2.19630
H          0.95460        1.26890        0.84620
H         -0.76230        1.15140        0.47730
H         -0.14960        0.47870        1.99350
H          1.12100       -1.27080        0.76620
H         -0.58100       -1.35770        0.35390
H          2.76030       -0.18770       -0.87110
H          2.30370       -0.26380       -2.58220
H          1.05350        1.66560       -2.09130
H          0.71960       -1.96030       -3.03520
H         -0.47620       -2.46100       -1.74680
H         -1.29700       -0.27380       -1.72460
