19
gdb 12091	3.22123	1.60114	1.53916	2.7042	71.58	-0.2449	0.072	0.3169	963.7855	0.164408	-365.020831	-365.012349	-365.011404	-365.053588	31.767
C         -0.87550        1.30580        0.50590
C         -0.25840       -0.05510        0.28910
N          1.03710       -0.10920       -0.41310
C          0.96710       -0.55470        0.98150
C          1.75720        0.20260        2.01860
C          1.47180       -0.20170        3.44910
C          3.06660        0.76720        1.65040
O          1.92000        1.60750        1.80930
H         -0.10550        2.04640        0.71870
H         -1.42580        1.61610       -0.38920
H         -1.58460        1.28020        1.34100
H         -0.97570       -0.83450        0.02900
H          1.07980       -0.90730       -1.04010
H          0.99290       -1.62980        1.16480
H          1.70100       -1.26060        3.61160
H          2.07130        0.39490        4.14050
H          0.41440       -0.04720        3.68910
H          3.83810        0.88510        2.41050
H          3.41360        0.66200        0.62490
