19
gdb 6020	2.60329	1.71864	1.40448	5.7723	71.35	-0.2421	0.0408	0.2828	993.6639	0.164372	-361.244767	-361.234931	-361.233987	-361.278481	36.247
C          0.08630        1.56480       -0.04740
C          0.00290        0.03690        0.08070
N          0.67730       -0.49310        1.26890
C         -1.47280       -0.50480        0.03480
C         -2.27720       -0.10780        1.28620
N         -2.23450       -0.08740       -1.15050
C         -1.38790       -1.98190       -0.02320
N         -1.32470       -3.13190       -0.11150
H          1.13650        1.86970       -0.08320
H         -0.39590        1.93890       -0.95560
H         -0.37230        2.06540        0.81270
H          0.50300       -0.40560       -0.78950
H          1.67780       -0.54940        1.11570
H          0.54010        0.12430        2.06330
H         -2.37490        0.98090        1.34450
H         -3.27890       -0.53730        1.22950
H         -1.78810       -0.47020        2.19180
H         -2.40080        0.91300       -1.11680
H         -1.71260       -0.28240       -2.00020
