16
gdb 15935	3.47213	1.96119	1.54546	1.9067	65.54	-0.2298	-0.0342	0.1956	842.8642	0.131528	-379.870533	-379.8634	-379.862456	-379.902101	26.668
O         -0.75560        1.18390        0.73120
C          0.17510        0.89900        0.01610
C          1.41620        1.72900       -0.12180
C          1.70690        2.77070        0.98860
N          1.92810        3.84670       -0.02150
C          1.53380        2.94970       -1.12400
C          2.74570        2.21610       -1.74260
N          2.53360        1.06810       -0.81550
H          0.16890       -0.00320       -0.63390
H          0.82390        2.91530        1.61910
H          2.57880        2.56870        1.62120
H          1.29540        4.62850        0.09860
H          0.72880        3.28770       -1.77820
H          2.64120        1.91930       -2.79240
H          3.67820        2.77370       -1.61120
H          3.32470        0.82460       -0.22900
