17
gdb 19879	3.35187	2.26538	2.02071	1.7736	66.82	-0.2151	0.0652	0.2803	762.4541	0.143098	-363.808618	-363.801836	-363.800891	-363.839391	26.487
C         -0.32610        1.53950       -0.01630
N          0.07130        0.14070        0.07110
C          1.34800       -0.40510       -0.32550
C          2.63290        0.43950       -0.34810
C          2.92090        0.82380        1.10070
O          1.95260        1.68610        1.70770
C          1.85780        0.27800        1.96170
C          0.86560       -0.48990        1.10540
H          0.49210        2.26310        0.00100
H         -0.89880        1.66360       -0.94250
H         -0.99180        1.76870        0.82080
H          1.30100       -1.24390       -1.01830
H          3.45480       -0.17640       -0.72950
H          2.56370        1.31970       -0.99690
H          3.94430        0.98650        1.43220
H          2.01430       -0.02140        2.99460
H          0.44220       -1.39120        1.54370
