15
gdb 2536	3.33713	2.12148	1.50122	3.4684	57.75	-0.2423	0.0243	0.2666	831.3134	0.124754	-341.827199	-341.819096	-341.818152	-341.859724	27.937
C         -0.61460        1.16560        0.14070
N          0.53190        0.29280       -0.09000
C          1.01040       -0.39490        1.10330
C          0.15820       -1.62270        1.51910
O          0.07510       -2.56230        0.46700
C          2.39340       -0.86030        0.87930
N          3.44850       -1.29990        0.70830
H         -0.31850        1.98770        0.80160
H         -0.92000        1.60210       -0.81370
H         -1.49680        0.67500        0.58440
H          0.30690       -0.41320       -0.78470
H          1.02970        0.32200        1.93410
H          0.55850       -2.06450        2.44240
H         -0.86450       -1.28990        1.71820
H          0.93900       -2.98090        0.37130
