20
gdb 6603	4.70648	1.3872	1.3197	1.6064	75.95	-0.2269	0.0953	0.3222	1046.2498	0.175519	-348.959036	-348.950651	-348.949707	-348.991478	32.164
C         -0.10630        1.52420        0.09280
C         -0.09960       -0.00710        0.03700
C         -1.47390       -0.59420       -0.09700
C         -2.59030       -0.31060       -1.13880
C         -3.18240       -1.16990        0.00790
C         -4.60720       -1.52260        0.30030
C         -1.92460       -2.07620       -0.04400
O         -2.46500       -0.29910        0.97920
H          0.90460        1.91460        0.24150
H         -0.49880        1.95250       -0.83510
H         -0.73590        1.87440        0.91530
H          0.50740       -0.35950       -0.80660
H          0.35840       -0.41630        0.94600
H         -2.94790        0.71970       -1.17260
H         -2.49800       -0.76440       -2.12980
H         -5.00940       -2.16350       -0.49070
H         -4.68310       -2.05760        1.25180
H         -5.22180       -0.61910        0.36000
H         -1.77010       -2.69540       -0.93230
H         -1.69130       -2.59710        0.88650
