20
gdb 18095	4.0435	1.79495	1.31355	0.0533	81.05	-0.2125	0.0413	0.2538	978.3556	0.180545	-311.905739	-311.898567	-311.897623	-311.93716	27.941
C          0.01110        1.51590        0.06600
C          1.52040        1.91010        0.09640
C          2.16800        0.64910        0.59590
C          1.33580       -0.39360        0.59840
C         -0.03860       -0.04320        0.10100
C          2.01220       -1.67780        0.98860
C          3.38750       -1.17550        1.52770
C          3.57110        0.27540        0.98400
H         -0.48130        1.91100        0.96000
H         -0.51440        1.93320       -0.79700
H          1.89390        2.17770       -0.90310
H          1.70660        2.78400        0.73240
H         -0.84790       -0.41660        0.74000
H         -0.21910       -0.46970       -0.89680
H          1.46070       -2.25700        1.73920
H          2.13080       -2.34250        0.12010
H          3.35600       -1.14770        2.62130
H          4.21350       -1.83540        1.25000
H          4.24350        0.30460        0.11380
H          4.01540        0.94370        1.73150
