18
gdb 17580	2.66557	2.41716	1.83815	1.8277	71.01	-0.2474	0.0847	0.3321	830.1187	0.152748	-347.756112	-347.748476	-347.747532	-347.78743	29.664
C         -0.00680        1.52200        0.05750
C         -0.01850        0.02060        0.02240
C          1.16710       -0.83770       -0.35930
C          0.59470       -0.98220        1.03330
C          1.35290       -0.70160        2.29900
C         -0.68020       -1.79860        0.93650
O         -1.79680       -0.97190        1.30540
C         -1.26230       -0.84670       -0.02310
H          0.96640        1.90520        0.38160
H         -0.21210        1.94750       -0.93200
H         -0.76560        1.89800        0.75140
H          1.06260       -1.63710       -1.08900
H          2.11890       -0.31560       -0.41880
H          2.05050        0.13230        2.16880
H          0.66600       -0.44320        3.11140
H          1.93990       -1.57180        2.61580
H         -0.81680       -2.87140        1.01530
H         -1.94570       -1.02520       -0.84580
