19
gdb 13484	3.20516	1.64361	1.15544	2.4242	72.58	-0.2616	0.028	0.2896	1058.2021	0.165054	-365.07177	-365.063243	-365.062299	-365.104781	31.425
C          0.02250        1.57950        0.11430
C          0.02510        0.04590        0.05940
C          0.73820       -0.55930        1.27580
C         -1.40570       -0.49390       -0.05370
C         -2.19240       -0.23630       -1.36010
O         -2.29750       -1.67630       -1.59050
C         -1.57640       -1.95150       -0.44760
N         -1.20640       -3.04970        0.03340
H          1.04470        1.96780        0.16270
H         -0.45900        2.02100       -0.76510
H         -0.51080        1.93750        1.00290
H          0.56640       -0.26550       -0.84530
H          0.25390       -0.24120        2.20690
H          0.71550       -1.65120        1.24070
H          1.78130       -0.22930        1.31530
H         -1.97460       -0.24070        0.84720
H         -3.18140        0.21740       -1.26400
H         -1.63020        0.24310       -2.16640
H         -1.50960       -3.83230       -0.54910
