19
gdb 19906	4.57155	1.44875	1.31984	1.67	74.77	-0.2176	0.0666	0.2842	1008.9989	0.166198	-327.827648	-327.820241	-327.819297	-327.859418	29.025
C         -0.91630        1.34070        0.53520
C         -0.13090        0.16380       -0.05840
C          0.67370       -0.56680        1.02020
C          0.60040       -1.99870        1.48010
C          0.76840       -3.04220        0.35730
C          1.03460       -2.52810       -1.00660
N          2.12950       -2.52390       -0.01890
C          1.92370       -1.42660        1.00600
H         -0.24280        2.07980        0.98260
H         -1.50790        1.84870       -0.23250
H         -1.60320        0.99980        1.31740
H         -0.83630       -0.52050       -0.53900
H          0.53540        0.53860       -0.84520
H          0.77100        0.06410        1.90640
H          0.29960       -2.28950        2.47870
H          0.62580       -4.10140        0.54760
H          1.19540       -3.28270       -1.77310
H          0.62520       -1.60220       -1.37890
H          2.80640       -1.14420        1.56700
