20
gdb 16017	3.66312	1.83793	1.4862	1.2468	74.71	-0.2381	0.0873	0.3254	925.9669	0.179229	-349.006384	-348.999211	-348.998267	-349.037344	29.224
C          0.01000        1.49980       -0.03230
C          1.32220        0.73360       -0.03770
C         -0.00370        0.00940        0.03800
C         -0.40920       -0.73010        1.29790
C          0.07660       -2.18730        1.23240
C         -0.36390       -2.82560       -0.09250
C          0.06080       -1.94370       -1.26820
O         -0.44600       -0.61970       -1.13920
H         -0.26140        2.06050        0.85590
H         -0.30880        1.94260       -0.96890
H          1.85990        0.68500       -0.97780
H          1.94960        0.77430        0.84650
H         -0.00790       -0.22070        2.18040
H         -1.50400       -0.71020        1.37990
H          1.17260       -2.20600        1.29780
H         -0.30300       -2.75910        2.08570
H          0.06480       -3.82750       -0.20950
H         -1.45570       -2.93330       -0.10800
H          1.16100       -1.91850       -1.33990
H         -0.33120       -2.32390       -2.21610
