14
gdb 15491	3.55447	2.01172	1.29495	1.62	67.88	-0.2392	-0.0232	0.216	884.6493	0.109762	-374.929137	-374.922313	-374.921369	-374.960323	25.017
N         -0.02080        1.30780        0.00670
C         -0.00090        0.03840        0.00240
N         -1.18180       -0.69330        0.00890
C         -2.48440       -0.17790        0.02050
N         -3.42450       -1.03750        0.02500
C         -2.77660       -2.35420        0.01600
C         -1.26930       -2.09710        0.00530
N         -0.24880       -2.84880       -0.00480
H          0.92890        1.67480        0.00060
H          0.87190       -0.61890       -0.00630
H         -2.60860        0.89720        0.02480
H         -3.07480       -2.93280        0.89770
H         -3.08830       -2.92730       -0.86450
H         -0.51840       -3.83110       -0.00580
