12
gdb 21569	4.21253	1.91994	1.31938	3.3958	61.36	-0.2381	-0.0643	0.1738	837.1311	0.085871	-410.855464	-410.848931	-410.847987	-410.886002	24.728
N          0.04040        1.34360        0.11810
C         -0.05490       -0.01120        0.04400
C         -1.23450       -0.71140        0.02530
C         -1.19440       -2.13950       -0.00870
O         -2.10460       -2.94530       -0.02810
N          0.15150       -2.60500       -0.02180
N          1.27090       -1.89310       -0.01410
N          1.19780       -0.62310        0.01890
H          0.94730        1.74070       -0.06660
H         -0.76490        1.91110       -0.08140
H         -2.20070       -0.22250        0.03990
H          0.29200       -3.60710       -0.04990
