17
gdb 20891	5.48611	1.29151	1.14468	4.2928	71.37	-0.242	0.0074	0.2493	1089.7977	0.142596	-360.058023	-360.049739	-360.048795	-360.092186	28.778
C         -0.32590        1.50280        0.22190
C          0.20650        0.09730       -0.06170
N          0.77140       -0.53990        1.11850
C          0.14270       -1.15700        2.14930
C          1.15240       -1.51510        3.01370
C          1.08920       -2.23570        4.32060
N          2.33260       -1.09700        2.46960
N          2.10030       -0.50850        1.33040
H          0.47330        2.14390        0.60270
H         -0.71820        1.94560       -0.69840
H         -1.13230        1.48060        0.96070
H         -0.58430       -0.55010       -0.45320
H          1.01230        0.12910       -0.79790
H         -0.92600       -1.29080        2.17860
H          1.63010       -3.18650        4.27330
H          1.54780       -1.64160        5.11720
H          0.05480       -2.44670        4.60360
