18
gdb 13348	5.24981	1.08857	0.95631	3.0372	68.35	-0.2495	-0.0256	0.2238	1193.1387	0.153582	-384.952872	-384.944557	-384.943613	-384.987558	28.633
O         -0.21720       -0.04310        0.01770
C         -0.10050        1.15260       -0.05070
C          1.21510        1.90020       -0.05500
C          1.34030        2.85610       -1.24750
C          2.61620        3.71740       -1.24940
C          2.78170        4.08230       -2.73650
O          2.00260        3.14680       -3.48800
C          1.46230        2.16890       -2.61490
H         -0.99870        1.81260       -0.11650
H          1.25650        2.48390        0.87630
H          2.03330        1.17320       -0.03470
H          0.46460        3.51830       -1.27260
H          2.54130        4.59640       -0.60440
H          3.46560        3.12000       -0.89990
H          2.40870        5.09070       -2.95540
H          3.83030        4.03590       -3.05680
H          2.12550        1.28980       -2.54060
H          0.50560        1.83410       -3.02870
