14
gdb 7875	3.75844	1.75732	1.21531	2.2051	66.96	-0.2464	-0.0872	0.1591	933.1643	0.106252	-382.605379	-382.597908	-382.596964	-382.637616	26.68
C         -0.03150        1.50530        0.05440
C         -0.00670        0.02000       -0.04810
C         -0.03650       -0.76940       -1.13810
C          0.00650       -2.21030       -0.77700
O         -0.00820       -3.13790       -1.55050
C          0.07210       -2.29230        0.74850
C          0.06100       -0.83240        1.18710
O          0.09870       -0.40430        2.31560
H          0.85900        1.86210        0.58350
H         -0.08140        1.98350       -0.92570
H         -0.88830        1.82790        0.65600
H         -0.08570       -0.44710       -2.17200
H         -0.78050       -2.84230        1.15860
H          0.97830       -2.80600        1.08430
