18
gdb 16945	3.7492	1.9782	1.8357	1.798	72.03	-0.2298	0.0173	0.2471	822.1763	0.156129	-347.809939	-347.803312	-347.802368	-347.840377	26.759
C          0.00530        1.48570        0.04600
C         -0.06910       -0.00310       -0.02430
C         -0.09960       -0.80800       -1.09650
C         -0.01500       -2.23080       -0.57190
C         -0.83310       -2.11940        0.72310
C          0.02210       -0.91520        1.19620
C          1.42740       -1.58570        1.10410
O          1.33600       -2.42840       -0.04890
H          0.93390        1.81640        0.52910
H         -0.03600        1.93720       -0.94910
H         -0.81800        1.89730        0.64370
H         -0.05370       -0.51650       -2.13850
H         -0.22300       -3.04620       -1.26240
H         -1.87990       -1.85840        0.56140
H         -0.74930       -3.00640        1.35790
H         -0.20540       -0.46760        2.16430
H          2.23480       -0.85410        0.97830
H          1.64080       -2.19780        1.98990
