15
gdb 16324	3.73176	1.68547	1.33959	3.0817	61.53	-0.2458	0.0071	0.2529	905.483	0.119058	-399.781764	-399.77431	-399.773366	-399.813856	27.492
O          0.64980        0.24380        0.93060
C         -0.02910        0.25830       -0.31610
C         -1.40230       -0.36070       -0.25440
C         -2.24420       -0.49380        1.01970
C         -1.87870       -1.71560        0.23180
N         -2.71090       -1.85460       -0.96900
C         -2.36260       -0.56880       -1.42640
O         -2.71780        0.06930       -2.37620
H          0.30010        0.96320        1.46510
H         -0.11270        1.27760       -0.72020
H          0.59960       -0.30950       -1.01070
H         -1.67900       -0.33960        1.93460
H         -3.27300       -0.14560        1.04550
H         -1.28770       -2.54320        0.59970
H         -3.66770       -2.19160       -0.95690
