14
gdb 8474	3.0031	2.13473	1.60507	4.1646	58.31	-0.2616	0.0001	0.2618	820.361	0.105323	-419.672324	-419.664826	-419.663882	-419.703803	27.805
C         -0.07500        1.47660        0.07320
C          0.06310       -0.00560        0.06980
C          1.19990       -0.86700       -0.36940
C          0.62270       -1.00230        1.05520
O          1.34940       -0.79720        2.19750
C         -0.73180       -1.67190        0.93630
O         -1.34310       -2.55070        1.44750
O         -1.15930       -0.80530       -0.06480
H          0.87890        1.93860        0.34210
H         -0.36760        1.84290       -0.91600
H         -0.83230        1.78990        0.79720
H          1.04730       -1.63950       -1.11650
H          2.17610       -0.38910       -0.37220
H          1.96200       -1.53250        2.31360
