17
gdb 18978	4.3786	2.21374	1.82697	2.3585	67.95	-0.2294	0.0831	0.3125	759.1848	0.145409	-363.782397	-363.776451	-363.775507	-363.81236	23.895
C         -0.04300        1.56390        0.01020
C          1.46190        1.25190       -0.00550
C          1.10320        0.16070        1.02910
C          1.98040       -1.06910        1.16540
O          2.05690       -1.82320       -0.02730
C          1.95810       -1.05660       -1.21040
C          1.08370        0.17160       -1.04470
N         -0.05340        0.02700        0.00220
H         -0.47080        1.99320        0.92100
H         -0.48770        2.00270       -0.88770
H          2.31660        1.93890       -0.00990
H          0.76010        0.51280        2.00760
H          2.98280       -0.75410        1.50680
H          1.57100       -1.74420        1.92470
H          2.95410       -0.73780       -1.56710
H          1.53460       -1.72360       -1.96900
H          0.72250        0.53400       -2.01280
