17
gdb 7960	3.52496	1.74256	1.32597	2.6938	65.52	-0.2559	0.0294	0.2854	936.6266	0.142469	-401.022906	-401.014996	-401.014051	-401.055073	29.633
C          0.46800        1.40760       -0.23800
C         -0.09180        0.05060        0.16730
O         -0.01150       -0.88060       -0.93410
C          1.03390       -1.75040       -0.77700
N          1.34030       -2.65800       -1.59820
C          1.73700       -1.45580        0.52750
C          0.68410       -0.65310        1.30460
O          1.18560        0.30730        2.21020
H          1.52940        1.34310       -0.49400
H         -0.07500        1.78240       -1.10960
H          0.35900        2.11910        0.58340
H         -1.15360        0.14540        0.41140
H          0.71040       -2.63640       -2.40270
H          2.07010       -2.37360        1.01340
H          2.61560       -0.82690        0.34430
H         -0.00060       -1.34680        1.81420
H          1.60130       -0.15620        2.94330
