15
gdb 17981	4.14047	1.77255	1.50801	2.5777	66.78	-0.2348	0.0314	0.2661	852.3562	0.118877	-362.565691	-362.558735	-362.557791	-362.597018	26.476
C          0.09550       -1.19470        0.16640
C          0.06560        0.00540        0.11070
C          0.02890        1.45250        0.01570
N         -0.31500        2.19400        1.27590
C          0.84500        3.10350        1.10690
C          2.07880        2.58550        1.86630
O          2.43220        1.71860        0.75300
C          1.37780        2.23900       -0.05870
H          0.13270       -2.25410        0.22800
H         -0.60480        1.75130       -0.83150
H         -1.21430        2.65770        1.22490
H          0.64330        4.17450        1.07550
H          2.86620        3.32780        2.04810
H          1.85960        2.02520        2.77990
H          1.71600        2.56580       -1.04430
