18
gdb 7693	4.29496	1.49496	1.39215	0.4414	68.03	-0.223	0.0715	0.2945	968.8272	0.151605	-384.897316	-384.889109	-384.888165	-384.929222	31.498
C          0.04910        1.47590       -0.04680
C          0.01810       -0.03280        0.08850
O          0.98750       -0.66200       -0.81360
C          1.74940       -1.12170        0.30270
C          0.73870       -0.60090        1.30810
C          0.97010       -2.08990        1.15570
C         -0.03040       -3.07090        0.59700
O          1.69750       -2.54800        2.27030
H          1.05170        1.86270        0.15750
H         -0.23710        1.76850       -1.06140
H         -0.65400        1.93580        0.65660
H         -0.99200       -0.41790       -0.10090
H          2.83220       -1.07510        0.25290
H          0.88110       -0.10460        2.25890
H         -0.47090       -2.69880       -0.33000
H          0.46630       -4.02110        0.36420
H         -0.82670       -3.27540        1.31960
H          2.23630       -3.29330        1.98130
