13
gdb 21577	3.47419	2.09872	1.31243	5.7386	63.63	-0.2305	-0.0404	0.1901	856.2188	0.097311	-394.809012	-394.802127	-394.801182	-394.840095	25.216
N          0.07760        1.39850        0.11540
C         -0.04460        0.01500        0.02030
C         -1.14090       -0.80750        0.04030
C         -0.60100       -2.12270       -0.01690
N          0.71170       -2.14120       -0.07570
N          1.06680       -0.81310       -0.03410
C          2.40570       -0.41450        0.03090
O          3.34700       -1.15170       -0.04090
H          0.62870        1.82290       -0.62060
H         -0.82560        1.85030        0.16500
H         -2.17680       -0.51060        0.06940
H         -1.14530       -3.05700       -0.02990
H          2.48270        0.67780        0.17070
