15
gdb 17202	5.32403	1.61752	1.45795	2.0722	61.61	-0.2479	0.0621	0.31	856.3039	0.119009	-399.680899	-399.674429	-399.673485	-399.711251	25.857
O          0.12250        1.42500       -0.08370
C          0.08550        0.04100       -0.08190
C          0.03250       -0.68660        1.30130
O         -1.34440       -0.12860        1.46330
C         -1.30540       -0.65520        0.06150
C         -0.58750       -1.89290        0.59710
C         -0.07570       -3.16830        0.07420
N         -1.15800       -3.11270        1.09730
H         -0.51190        1.69240        0.59830
H          0.77650       -0.33980       -0.83620
H          0.70440       -0.62650        2.15810
H         -2.21180       -0.56360       -0.53520
H         -0.39140       -3.54060       -0.89630
H          0.91780       -3.48640        0.38130
H         -0.79690       -3.33930        2.02060
