17
gdb 7792	3.31393	1.85851	1.27082	5.362	65.24	-0.2496	0.0546	0.3042	953.1751	0.144065	-401.058379	-401.05082	-401.049876	-401.090447	28.235
C         -0.01630        1.56230        0.02360
C          0.01310        0.03550       -0.03900
C          0.73590       -0.50080       -1.27320
C          0.98410       -1.98880       -1.08860
O          1.79660       -2.24220        0.06230
C          1.55510       -1.56250        1.21600
O          2.11150       -1.88600        2.23560
N          0.68170       -0.50830        1.13880
H          0.99960        1.96940        0.03260
H         -0.54990        1.97000       -0.84030
H         -0.53210        1.90840        0.92590
H         -1.02730       -0.32720       -0.06880
H          0.13450       -0.32390       -2.17000
H          1.69510        0.01450       -1.40070
H          0.03370       -2.53120       -0.98770
H          1.53180       -2.41960       -1.92980
H          0.53220       -0.06050        2.02920
