13
gdb 2251	3.99683	3.10183	2.08404	4.1997	53.67	-0.2735	0.0032	0.2767	633.8552	0.101287	-344.454717	-344.448462	-344.447517	-344.484701	22.984
C         -0.02550        1.58550        0.05000
C          0.04900        0.08840        0.02160
C         -0.87190       -0.85560        0.82040
C          0.60150       -0.96300        0.95440
O          1.11580       -1.74760       -0.15820
C          0.70260       -0.75860       -1.04670
O          0.91740       -0.69940       -2.21280
H          0.94090        2.03590       -0.19600
H         -0.76000        1.95040       -0.67510
H         -0.32690        1.94230        1.03930
H         -1.40030       -0.35860        1.62950
H         -1.42090       -1.65180        0.32770
H          1.21780       -0.89510        1.83940
