14
gdb 20520	4.91653	1.60773	1.22061	4.2601	65.17	-0.2421	-0.0363	0.2057	932.0142	0.108474	-378.76844	-378.761248	-378.760304	-378.800381	25.777
C         -0.07050        1.49420        0.00970
C          0.02710       -0.01750        0.00270
O          1.09110       -0.60320       -0.00840
C         -1.24150       -0.78310        0.00980
N         -2.43430       -0.17670        0.02190
N         -3.31540       -1.18150        0.02480
C         -2.73230       -2.41180        0.01520
C         -1.37650       -2.19340        0.00520
H          0.93390        1.91840        0.00240
H         -0.63550        1.84300       -0.86040
H         -0.61960        1.83570        0.89270
H         -4.29920       -0.96730        0.03350
H         -3.32150       -3.31500        0.01630
H         -0.58140       -2.91900       -0.00410
