20
gdb 15903	2.59958	1.79098	1.2386	2.104	71.01	-0.2382	0.0683	0.3066	1043.6914	0.175585	-386.124387	-386.115174	-386.11423	-386.158438	33.426
C         -0.85210        1.09490       -1.18710
C          0.02720       -0.07580       -0.79850
O          1.38520        0.05580       -1.29020
C          1.93580       -0.35330       -0.01830
C          3.09280        0.52350        0.42270
C          0.54080       -0.25530        0.65650
C          0.30850        0.88430        1.63150
O         -1.06290        0.84010        2.00730
H         -0.41180        2.04590       -0.87540
H         -0.97270        1.12210       -2.27480
H         -1.83790        0.99790       -0.72430
H         -0.41980       -1.00780       -1.17550
H          2.27720       -1.39860       -0.07190
H          2.79940        1.57360        0.50100
H          3.48550        0.19200        1.39010
H          3.90220        0.45530       -0.31110
H          0.20340       -1.17850        1.13380
H          0.96440        0.75520        2.50760
H          0.56210        1.85220        1.17590
H         -1.24330        1.59260        2.57830
