18
gdb 20868	6.54324	1.01002	0.93832	2.2175	73.82	-0.2316	0.0268	0.2583	1265.2652	0.155873	-344.014522	-344.006509	-344.005565	-344.047939	28.999
C         -0.07570        1.59910        0.00540
C         -0.05290        0.06930       -0.02070
C          0.76560       -0.49770       -1.19680
C          0.78450       -1.99710       -1.24710
C          1.77820       -2.85370       -0.81360
N          1.33280       -4.11540       -1.03560
N          0.10860       -4.15330       -1.59200
C         -0.22520       -2.87220       -1.71860
H          0.93640        2.01010        0.09470
H         -0.51530        2.00510       -0.91270
H         -0.66250        1.97490        0.84940
H          0.36200       -0.31590        0.91880
H         -1.07750       -0.31800       -0.07940
H          0.35560       -0.10230       -2.13530
H          1.79300       -0.11840       -1.13270
H          2.74690       -2.66130       -0.37870
H          1.81000       -4.98050       -0.84850
H         -1.18110       -2.61110       -2.15090
