15
gdb 2033	7.37418	1.69002	1.60135	0.6604	57.07	-0.2567	0.0696	0.3262	782.2759	0.124334	-345.615042	-345.608376	-345.607431	-345.645545	25.253
O          0.61240        0.83870       -0.66350
C         -0.03600       -0.17450        0.05690
C          0.09680       -0.22120        1.61090
C         -1.38270       -0.60770        1.65070
C         -2.02500       -1.71510        2.35840
O         -2.26380       -0.34710        2.72530
C         -1.58850       -0.13940        0.20920
H          0.34670        1.68770       -0.29420
H          0.29390       -1.11360       -0.39450
H          0.83180       -0.89800        2.05170
H          0.24710        0.78450        2.02080
H         -2.87200       -2.23050        1.90650
H         -1.45790       -2.29910        3.08260
H         -1.96050        0.89160        0.18460
H         -2.19270       -0.75120       -0.46400
