18
gdb 16228	2.93189	2.19878	1.5234	1.7704	72.33	-0.2447	0.022	0.2666	884.0403	0.153838	-347.798231	-347.790769	-347.789825	-347.829913	28.825
C         -0.17750        1.56740       -0.03870
C          0.00820        0.04060        0.01480
C          0.84150       -0.47670       -1.13710
C          2.01660       -0.96880       -0.74690
C          2.19380       -0.90400        0.75000
C          0.80840       -0.46040        1.23120
C          0.51600       -0.09150        2.61900
O          0.12770       -1.36930        2.10840
H          0.78790        2.08270       -0.00050
H         -0.67550        1.86330       -0.96790
H         -0.78990        1.92520        0.79480
H         -0.98200       -0.43140        0.04070
H          0.50240       -0.40680       -2.16520
H          2.77980       -1.36560       -1.40700
H          2.45620       -1.86660        1.20320
H          2.98100       -0.19220        1.03420
H          1.31480       -0.10530        3.36090
H         -0.30280        0.59100        2.84460
