14
gdb 20948	7.76567	1.12309	0.99581	4.2144	60.62	-0.2478	-0.0559	0.1919	1124.8235	0.107005	-411.986367	-411.978842	-411.977898	-412.019038	26.196
C         -0.04200        1.53400       -0.06960
C         -0.00590        0.02200        0.11630
N         -1.34550       -0.54140       -0.01630
C         -1.53770       -1.88090       -0.00700
N         -0.61280       -2.80210       -0.12200
O         -1.33560       -3.97370       -0.11100
N         -2.66700       -3.68540        0.02660
N         -2.80840       -2.43580        0.09170
H          0.96540        1.94830        0.02010
H         -0.43920        1.79900       -1.05360
H         -0.66610        2.01270        0.69360
H          0.62630       -0.44420       -0.64600
H          0.43320       -0.23710        1.09090
H         -2.11550       -0.00490        0.35360
