14
gdb 4523	3.68328	1.77545	1.20744	2.392	61.49	-0.1698	0.0496	0.2194	936.004	0.107114	-415.869946	-415.861655	-415.86071	-415.902353	30.122
N          0.07400        1.35920       -0.22480
C         -0.05360       -0.01700       -0.09030
C         -1.13760       -0.84770       -0.04570
C         -0.58200       -2.17180       -0.00540
O         -1.25230       -3.35840        0.05020
C          0.77370       -2.06990       -0.02130
N          1.84130       -2.96080        0.02170
O          1.09680       -0.70660       -0.07280
H          0.93980        1.70300        0.17130
H         -0.71710        1.86680        0.14630
H         -2.17860       -0.56400       -0.04940
H         -2.19570       -3.17690        0.02720
H          1.91250       -3.54710       -0.80230
H          1.83190       -3.55620        0.84150
