14
gdb 15210	2.51467	2.00523	1.53612	1.0131	69.75	-0.2414	0.0225	0.2639	875.6276	0.103602	-345.313538	-345.305019	-345.304075	-345.346692	30.895
O          0.10310        1.37040       -0.05200
C         -0.01740       -0.00160        0.00340
C         -0.46990       -0.70610        1.26930
C         -0.82380        0.09360        2.39930
C         -1.10100        0.80950        3.32610
C         -1.37240       -0.69080        0.00010
C         -2.56640        0.09310       -0.02350
C         -3.56090        0.76910       -0.05530
H         -0.48260        1.75910        0.61070
H          0.77120       -0.47700       -0.56990
H         -0.01070       -1.66420        1.49230
H         -1.35830        1.41800        4.15760
H         -1.42510       -1.64300       -0.51980
H         -4.44510        1.35610       -0.08210
