17
gdb 17301	3.13023	2.44627	1.86722	0.5038	66.62	-0.2198	0.0693	0.2892	772.0277	0.142755	-363.784607	-363.777965	-363.777021	-363.814813	27.366
O         -0.08610        1.37460       -0.09380
C          0.00530       -0.01230        0.00220
C         -1.36190       -0.73630       -0.03220
C         -0.94590       -1.55450        1.23660
C          0.41560       -0.81100        1.27000
N          1.63550       -1.40120        0.56850
C          1.20660       -2.14930       -0.62910
C          1.20840       -0.67890       -0.70320
H          0.79210        1.74970        0.03870
H         -2.17790       -0.03580        0.15560
H         -1.58550       -1.30460       -0.93860
H         -1.55900       -1.33050        2.11220
H         -0.90040       -2.64050        1.12770
H          0.71930       -0.34140        2.20580
H          2.03460       -2.67410       -1.09830
H          0.27760       -2.71030       -0.63350
H          1.92140       -0.12330       -1.30940
