22
gdb 15265	3.53552	1.18865	1.06997	1.2983	78.79	-0.2441	0.0608	0.3049	1247.2647	0.198828	-350.195377	-350.185477	-350.184533	-350.230396	35.879
C         -0.01870        1.55490       -0.37130
C          0.01520        0.14070        0.22110
C         -1.34570       -0.52750        0.17780
C         -1.80650       -1.28060       -1.04080
O         -0.88640       -1.36610       -2.09510
C         -1.53900       -2.03500        0.24800
C         -0.38500       -3.01240        0.35630
C         -0.80530       -4.44760        0.01350
H          0.96270        2.03550       -0.30510
H         -0.31090        1.52360       -1.42530
H         -0.73730        2.19130        0.15760
H          0.74480       -0.45830       -0.32890
H          0.36200        0.18370        1.26180
H         -2.12300        0.05330        0.67080
H         -2.84110       -1.15690       -1.36100
H         -1.00270       -2.21960       -2.52540
H         -2.43010       -2.35770        0.78390
H          0.42580       -2.70440       -0.31010
H          0.02410       -2.98800        1.37440
H         -1.60490       -4.79650        0.67630
H         -1.18090       -4.51780       -1.01390
H          0.03480       -5.14260        0.10930
