13
gdb 15614	3.63381	1.87513	1.25651	4.318	58.99	-0.2732	-0.0544	0.2188	907.5533	0.095297	-435.771982	-435.764557	-435.763612	-435.804598	25.024
C         -0.06940        1.46650       -0.04340
N         -0.12220        0.01720       -0.10320
C          0.50410       -0.60210       -0.99510
O          1.28460       -0.07420       -1.99010
C          1.80150       -1.13770       -2.77600
O          1.31760       -2.35420       -2.23900
C          0.52300       -2.09920       -1.15500
O         -0.01410       -2.94430       -0.51360
H          0.54460        1.93340       -0.82120
H         -1.09150        1.85450       -0.11170
H          0.31310        1.75990        0.94020
H          1.45570       -1.03090       -3.80980
H          2.89590       -1.12780       -2.73130
