18
gdb 6286	4.16288	1.11476	0.91949	3.8046	70.63	-0.2469	0.048	0.295	1248.7336	0.150639	-384.90269	-384.893255	-384.892311	-384.936773	34.717
C         -0.08580        1.51290       -0.02150
C          0.04360       -0.00840       -0.02460
O          0.78980       -0.44880       -1.17240
C          0.76930       -0.53870        1.21230
C          0.84350       -2.08220        1.26730
O          1.68830       -2.61780        0.26410
C          1.32870       -2.52640        2.57610
C          1.70690       -2.86530        3.66470
H          0.90270        1.98010        0.01880
H         -0.59280        1.86240       -0.92810
H         -0.67010        1.85370        0.83900
H         -0.96280       -0.45710       -0.05610
H          0.29150       -0.23090       -1.96620
H          1.78960       -0.14010        1.24110
H          0.24460       -0.17760        2.10240
H         -0.18640       -2.46830        1.14680
H          1.50390       -2.10310       -0.53560
H          2.04580       -3.17970        4.62060
