18
gdb 6203	3.76411	1.57889	1.47655	1.4112	69.19	-0.2207	0.0607	0.2815	949.9868	0.154155	-381.158464	-381.150152	-381.149207	-381.191084	31.472
C          0.04680        1.49990        0.01040
C         -0.01440       -0.03150        0.00300
C         -1.47340       -0.51190       -0.01900
C          0.80740       -0.64000       -1.17880
O          1.68140       -1.60320       -0.55820
C          1.51840       -1.41700        0.78170
N          2.29850       -2.24330        1.54590
N          0.66220       -0.57100        1.19820
H          1.08410        1.84460        0.05800
H         -0.41700        1.91840       -0.89030
H         -0.48060        1.89500        0.88310
H         -2.00560       -0.11830       -0.89260
H         -1.51980       -1.60490       -0.04980
H         -1.99300       -0.17780        0.88330
H          0.19240       -1.16220       -1.91660
H          1.42480        0.10530       -1.69240
H          3.17170       -2.52010        1.12420
H          2.36570       -1.96110        2.51120
