17
gdb 5915	3.32414	1.37748	1.2423	3.0992	68.6	-0.2695	-0.0392	0.2303	1027.796	0.139274	-363.898446	-363.889284	-363.88834	-363.932277	32.353
C          0.18360        1.65670        0.28510
C          0.09190        0.13270        0.06690
C          0.77370       -0.61130        1.23320
C         -1.37560       -0.32480       -0.11420
C         -2.20150       -0.04960        1.05780
N         -2.83770        0.17670        1.99590
C          0.85880       -0.20030       -1.20700
O          0.39210       -0.72910       -2.18180
H          1.22750        1.97950        0.34990
H         -0.29250        2.20730       -0.53250
H         -0.31350        1.93440        1.21880
H          0.28350       -0.36040        2.17820
H          0.72310       -1.69660        1.09940
H          1.82770       -0.32730        1.31420
H         -1.81390        0.17190       -0.98600
H         -1.40550       -1.39780       -0.32980
H          1.93280        0.09500       -1.16970
