16
gdb 18326	3.39633	2.18993	1.58854	1.743	63.6	-0.2415	-0.0248	0.2167	812.2587	0.131971	-383.752751	-383.746154	-383.74521	-383.783742	25.153
O          0.06100       -0.01510       -0.31880
C          0.00780        1.17520       -0.14850
C         -1.26860        2.02090       -0.04380
C         -0.83990        3.43840       -0.45920
C          0.63350        3.53660       -0.05390
O          0.80510        3.68860        1.37820
C          1.54000        2.45230        1.46570
C          1.21370        2.10460       -0.00760
H         -2.07280        1.58580       -0.63940
H         -1.59020        2.00230        1.00520
H         -0.91800        3.55980       -1.54630
H         -1.43010        4.23040        0.00880
H          1.19210        4.30050       -0.60490
H          2.60860        2.62130        1.64820
H          1.14570        1.78210        2.23830
H          2.04430        1.80840       -0.64640
