17
gdb 9726	3.58126	1.56892	1.49754	3.1072	67.81	-0.2726	0.0337	0.3063	919.2779	0.143294	-363.885542	-363.87775	-363.876806	-363.917972	28.622
C          0.24660        1.42120        0.00090
C         -0.12440       -0.07510       -0.01060
C          0.54180       -0.81950       -1.21690
C          1.71040       -1.60040       -0.56430
O          1.84540       -1.08540        0.75490
C          0.53610       -0.80640        1.19620
C         -1.57800       -0.23560       -0.00010
N         -2.72710       -0.36220        0.02330
H          1.33370        1.51550        0.06970
H         -0.09300        1.91670       -0.91240
H         -0.20470        1.93140        0.85620
H         -0.16140       -1.48980       -1.71360
H          0.89150       -0.09560       -1.95580
H          1.48330       -2.67640       -0.53060
H          2.66630       -1.46500       -1.07500
H          0.59480       -0.18420        2.09180
H         -0.01610       -1.72890        1.43390
