11
gdb 4334	3.97439	2.05279	1.35363	4.5691	55.58	-0.2647	-0.062	0.2027	805.0408	0.073577	-434.607739	-434.601707	-434.600763	-434.638136	22.484
O         -0.04940        1.31980        0.01000
C          0.00030       -0.01140        0.00270
N          1.16740       -0.58830       -0.00720
C          1.26110       -1.95140       -0.01480
O          2.25320       -2.61190       -0.02430
O          0.01750       -2.68930       -0.01140
C         -1.14510       -2.05030       -0.00120
C         -1.24860       -0.70560        0.00640
H          0.87030        1.62970        0.00620
H         -1.99270       -2.72820        0.00020
H         -2.19680       -0.19070        0.01470
