24
gdb 13498	2.941	1.51036	1.16422	0.062	84.91	-0.2777	0.0785	0.3562	1165.303	0.222938	-314.27398	-314.264494	-314.263549	-314.307511	36.225
C         -0.25210        1.51640       -0.88600
C         -0.07040        0.09830       -0.32460
C          0.64560        0.14130        1.03340
C         -1.41580       -0.62050       -0.21950
C         -2.28840       -0.83120       -1.48840
C         -2.73630       -2.19710       -0.90560
C         -1.50490       -2.16520        0.04820
C         -0.33560       -3.00640       -0.46190
H          0.71170        2.02620       -0.98990
H         -0.73110        1.50210       -1.87000
H         -0.87730        2.12320       -0.21970
H          0.56400       -0.45930       -1.02790
H          0.06240        0.71880        1.76100
H          0.79230       -0.86050        1.44900
H          1.62920        0.61520        0.94740
H         -2.02110       -0.10740        0.54040
H         -3.06210       -0.09010       -1.70330
H         -1.67330       -0.95330       -2.38610
H         -3.68180       -2.11870       -0.36160
H         -2.80270       -3.04350       -1.59520
H         -1.71350       -2.43570        1.08810
H         -0.11150       -2.79930       -1.51420
H          0.57970       -2.83060        0.11240
H         -0.57590       -4.07250       -0.38430
