18
gdb 19454	4.9171	1.53327	1.50464	0.7769	77.7	-0.2481	0.0542	0.3023	913.8482	0.155775	-310.627837	-310.621041	-310.620097	-310.658436	27.774
C         -0.07040       -1.20800       -0.09830
C         -0.03350       -0.00680       -0.03670
C         -0.00780        1.44020        0.01790
C         -0.06870        2.07920        1.45480
C          1.45310        1.77540        1.55250
C          1.41790        2.10640        0.03360
C          1.05170        3.60180        0.03360
C         -0.08100        3.58100        1.11640
H         -0.10170       -2.26780       -0.15140
H         -0.71290        1.85480       -0.71170
H         -0.78120        1.71590        2.19480
H          2.06130        2.41310        2.20090
H          1.65940        0.72280        1.74810
H          2.19580        1.77050       -0.65130
H          1.89930        4.22980        0.32170
H          0.69630        3.94560       -0.94210
H         -1.04610        3.91370        0.72370
H          0.15680        4.19790        1.98760
