22
gdb 20080	3.07365	1.43122	1.18284	0.1222	82.82	-0.2387	0.0858	0.3244	1143.9859	0.199676	-313.047375	-313.038178	-313.037233	-313.081439	34.235
C         -0.39580        0.97030       -1.60040
C          0.00930       -0.21720       -0.75220
C          1.45470       -0.61840       -0.52360
C          2.62650        0.13140       -1.12230
C          0.62820       -0.07120        0.62660
C          0.89590        1.25680        1.26400
C          0.04720        1.71560        2.42660
C          1.48420        1.31660        2.65420
H          0.29190        1.81400       -1.50720
H         -0.43460        0.69730       -2.66110
H         -1.39070        1.33040       -1.31560
H         -0.68050       -1.05270       -0.84970
H          1.62380       -1.69230       -0.48510
H          2.46430        1.21090       -1.16370
H          3.53670       -0.03710       -0.53600
H          2.82510       -0.20760       -2.14540
H          0.30660       -0.81520        1.35350
H          1.22100        2.04470        0.59330
H         -0.21540        2.76570        2.49490
H         -0.72700        1.04230        2.78020
H          1.67400        0.37560        3.16050
H          2.20760        2.09290        2.87870
