16
gdb 12320	3.18061	2.08505	1.31272	3.0065	68.45	-0.2345	-0.0526	0.182	913.6645	0.130467	-383.768567	-383.761025	-383.760081	-383.800457	27.675
C          0.08570        1.50510        0.04740
C          0.04490        0.00560       -0.02140
C         -0.07940       -0.70340       -1.15340
C         -0.06420       -2.20370       -1.18400
O          0.51210       -2.77380       -0.02980
C         -0.03180       -2.25510        1.16600
C          0.07590       -0.73410        1.26480
O          0.11020       -0.17520        2.34250
H          1.02520        1.84560        0.49550
H         -0.00960        1.95030       -0.94600
H         -0.71460        1.88620        0.68950
H         -0.20140       -0.19930       -2.11070
H         -1.09410       -2.58170       -1.33920
H          0.53090       -2.55890       -2.03260
H         -1.09840       -2.52740        1.27400
H          0.51370       -2.70560        1.99770
