17
gdb 18678	3.01396	2.28217	1.50468	3.0232	67.94	-0.2128	-0.0115	0.2013	850.8075	0.145066	-363.866208	-363.859397	-363.858453	-363.897201	26.684
O          0.03580       -0.01780       -0.29490
C          0.01860        1.17930       -0.10180
C         -1.28910        1.96250        0.04530
N         -1.30450        3.17150       -0.78410
C         -0.25150        4.11530       -0.40880
C          1.14990        3.51250       -0.20860
C          1.52140        2.91660        1.11060
C          1.26410        1.99690       -0.08040
H         -2.11140        1.29850       -0.23260
H         -1.44280        2.25990        1.09190
H         -1.18100        2.89960       -1.75520
H         -0.20570        4.88750       -1.18210
H         -0.56650        4.61620        0.51610
H          1.95140        3.99230       -0.76200
H          2.54670        2.98650        1.45530
H          0.78210        2.93410        1.90510
H          2.12570        1.49320       -0.50390
