12
gdb 3276	5.95174	2.67158	2.17012	3.0496	51.45	-0.2644	0.0005	0.2649	595.0988	0.091173	-360.472117	-360.466709	-360.465765	-360.501342	20.105
N          0.00850        1.11890        0.36750
C         -0.02200       -0.07980        0.01430
O          1.00020       -0.94020       -0.38260
C          0.06020       -2.01980       -0.64800
C         -0.22910       -2.86920        0.59330
O         -1.26930       -1.95120        1.02110
C         -1.10390       -1.13500       -0.15710
H          0.96100        1.48850        0.37590
H          0.20370       -2.46250       -1.63080
H         -0.64470       -3.86100        0.38040
H          0.59400       -2.94860        1.31020
H         -2.03810       -0.88490       -0.65830
