14
gdb 5404	5.34171	1.71868	1.31102	1.9838	66.49	-0.2495	-0.0371	0.2124	890.4108	0.10966	-378.777438	-378.770812	-378.769867	-378.808371	24.159
C         -0.02040        1.39300        0.01980
O          0.02160       -0.03260       -0.03460
C          0.62370       -0.59240       -1.08830
N          1.14950        0.19730       -2.02620
C          1.73510       -0.42910       -3.05020
C          1.79940       -1.81070       -3.14480
C          1.21140       -2.51990       -2.09840
N          0.62080       -1.93010       -1.06510
H          0.98720        1.81730        0.03680
H         -0.55670        1.80520       -0.83940
H         -0.54730        1.63030        0.94480
H          2.16580        0.20990       -3.81810
H          2.27640       -2.30830       -3.97910
H          1.21490       -3.60800       -2.08980
