15
gdb 12299	3.00241	2.28402	1.35908	5.0918	63.55	-0.2544	-0.0639	0.1905	870.1483	0.119911	-399.82559	-399.818499	-399.817555	-399.857764	26.074
N         -0.02340        1.20450        0.47610
C          0.00600        0.03830       -0.01420
O          1.18290       -0.57280       -0.33300
C          1.19720       -1.80370       -1.06910
C          0.13410       -2.77100       -0.57830
C         -1.24080       -2.13070       -0.77410
C         -1.31390       -0.72570       -0.19490
O         -2.35740       -0.21140        0.11140
H          0.92830        1.57320        0.54930
H          1.05680       -1.58620       -2.13770
H          2.20660       -2.19900       -0.93550
H          0.20970       -3.71390       -1.12950
H          0.31010       -2.99650        0.47990
H         -1.45150       -2.03590       -1.84950
H         -2.05880       -2.71570       -0.34630
