16
gdb 21172	7.0221	1.25648	1.08399	3.719	69.81	-0.2029	0.0248	0.2277	1092.1019	0.130465	-379.923553	-379.915365	-379.914421	-379.956256	29.153
C          0.09640        1.46530        0.04800
N         -0.08960        0.02090        0.06400
C          0.53820       -0.75300        0.99850
C          0.76560       -2.10140        1.09230
C          1.40760       -2.23940        2.35160
C          1.89530       -3.49240        3.00670
N          1.56350       -1.08920        2.96600
O          1.00340       -0.12620        2.08660
H          1.12610        1.76710       -0.18880
H         -0.57830        1.89370       -0.69600
H         -0.16160        1.87660        1.02560
H         -0.17940       -0.41940       -0.83770
H          0.50880       -2.87020        0.38320
H          2.64160       -3.99530        2.38290
H          2.34700       -3.25900        3.97270
H          1.07210       -4.19680        3.16550
