14
gdb 4711	6.60634	1.27592	1.0713	5.9825	73.32	-0.1981	-0.0304	0.1678	1028.829	0.108618	-378.772028	-378.764693	-378.763748	-378.803466	27.151
N          0.11790        1.38650        0.14330
C         -0.02490        0.00560        0.03450
C         -1.16830       -0.78960        0.00150
C         -0.74160       -2.13040       -0.01860
C          0.64540       -2.14620       -0.00470
N          1.05790       -0.81330        0.02800
C          1.58620       -3.23570       -0.03110
O          1.29990       -4.41770       -0.04920
H          0.79850        1.78370       -0.49340
H         -0.76430        1.86900        0.04040
H         -2.18330       -0.42310       -0.01960
H         -1.35830       -3.01460       -0.05920
H          2.01160       -0.50980        0.13570
H          2.65560       -2.90730       -0.03270
