15
gdb 11890	4.77795	1.66806	1.39657	4.7658	61.6	-0.2582	0.054	0.3122	879.5151	0.120319	-399.835612	-399.828831	-399.827887	-399.866703	25.83
O          0.06060        0.01950       -0.00410
C         -0.00140        1.21610       -0.00030
N         -1.10330        2.01480       -0.21920
C         -0.84730        3.39580        0.14290
C          0.67830        3.38960        0.10580
C          1.50050        4.26910       -0.78520
C          1.55410        4.41970        0.72860
O          1.07750        2.03160        0.22460
H         -2.01030        1.58880       -0.12560
H         -1.27270        4.10000       -0.57870
H         -1.23190        3.64560        1.14270
H          2.35580        3.81250       -1.26980
H          0.99340        5.03250       -1.36600
H          1.08370        5.28510        1.18420
H          2.44470        4.06550        1.23480
