16
gdb 19449	5.40146	1.57752	1.56301	0.456	75.59	-0.23	0.0008	0.2307	859.7653	0.131431	-309.397355	-309.39087	-309.389926	-309.427605	26.6
C         -0.09380       -1.21890       -0.11640
C         -0.04040       -0.01880       -0.04190
C          0.00440        1.42790        0.02830
C          0.00600        2.08110        1.47740
C          1.52580        1.70960        1.52940
C          1.44120        2.10760        0.01780
C          1.02750        3.57840        0.13610
C          0.09060        3.56110        1.08900
H         -0.13880       -2.27780       -0.17980
H         -0.71210        1.87100       -0.66820
H         -0.70450        1.76700        2.24030
H          2.16490        2.32170        2.16880
H          1.70620        0.64380        1.68730
H          2.19750        1.82050       -0.71110
H          1.41730        4.40040       -0.44700
H         -0.50060        4.36500        1.50350
