16
gdb 5781	5.83824	1.38532	1.20201	0.8292	70.05	-0.2178	0.0232	0.241	993.8162	0.132204	-346.615959	-346.609148	-346.608204	-346.647718	25.875
C          0.17200        1.58520        0.06710
C          1.30410        0.61760       -0.15900
C         -0.10880        0.10330        0.03950
C         -0.48100       -0.63500        1.26830
C         -1.01660       -0.13950        2.41790
O         -1.22320       -1.12880        3.32930
C         -0.81750       -2.28730        2.74640
C         -0.35590       -2.05330        1.49290
H          0.13250        2.09430        1.02340
H         -0.17310        2.18380       -0.76820
H          1.73780        0.54880       -1.15060
H          2.00640        0.46670        0.65300
H         -0.58830       -0.26460       -0.86430
H         -1.30590        0.85030        2.72920
H         -0.92010       -3.17470        3.34900
H          0.03340       -2.78530        0.80220
