15
gdb 21214	3.49739	1.88287	1.23955	1.1769	64.24	-0.1906	0.0193	0.2099	939.1288	0.121232	-392.156299	-392.148186	-392.147242	-392.188833	28.675
C         -0.08420        1.46860        0.00120
N          0.01280        0.02050        0.12450
C         -1.16550       -0.70650        0.05020
N         -2.38530       -0.17700        0.08860
N         -3.18210       -1.25030        0.04400
N         -2.57470       -2.43560       -0.02790
C         -1.28580       -2.11800       -0.02280
N         -0.24050       -3.04000       -0.14420
H          0.91800        1.89710        0.07610
H         -0.54750        1.79660       -0.94080
H         -0.69240        1.85960        0.82080
H          0.73250       -0.38510       -0.46040
H         -4.18230       -1.16490        0.02370
H         -0.59570       -3.98870       -0.16140
H          0.43320       -2.95040        0.60930
