19
gdb 17792	5.83687	1.0677	1.05777	0.7585	72.26	-0.2267	0.0814	0.3081	1172.5928	0.166623	-364.969603	-364.961828	-364.960884	-365.002434	29.067
O         -0.09560        1.49100       -0.55980
C         -0.11930        0.07870       -0.70910
C         -1.40300       -0.43330       -0.06190
C         -1.47890       -1.94940       -0.08340
C         -2.80070       -2.75610        0.00150
C         -3.02270       -2.32870       -1.46450
N         -1.52030       -2.67580       -1.45910
C         -1.96570       -3.89230       -0.62600
H          0.68040        1.82680       -1.01750
H         -0.09980       -0.21870       -1.76750
H          0.75380       -0.38830       -0.22380
H         -1.42250       -0.10090        0.98360
H         -2.25450        0.04450       -0.55370
H         -0.66280       -2.35670        0.52670
H         -3.52360       -2.80580        0.82410
H         -3.61150       -2.99300       -2.10300
H         -3.24420       -1.28580       -1.69100
H         -1.16080       -4.33400       -0.03170
H         -2.48920       -4.64950       -1.21560
