13
gdb 4086	3.51209	1.88344	1.2353	3.1411	67.21	-0.2432	-0.0707	0.1725	903.6658	0.095481	-398.586535	-398.579664	-398.57872	-398.617757	25.502
O         -0.07250        1.33550        0.00710
N          0.03390       -0.04770        0.00210
C         -1.11940       -0.61040        0.00910
C         -2.46850       -0.05530        0.02100
C         -3.37950       -1.04270        0.02480
C         -2.75500       -2.41170        0.01590
C         -1.24420       -2.11510        0.00570
O         -0.35670       -2.92640       -0.00400
H          0.84970        1.61790        0.00100
H         -2.67330        1.00550        0.02580
H         -4.45250       -0.89050        0.03320
H         -3.01670       -3.01440        0.89410
H         -3.02970       -3.00910       -0.86200
