18
gdb 8413	3.54989	1.61825	1.44159	3.0717	68.2	-0.2387	0.0644	0.3031	942.0588	0.152133	-384.898306	-384.890043	-384.889098	-384.930682	30.957
C         -0.04070        1.54500       -0.06360
C          0.01330        0.03600        0.00010
O         -1.15200       -0.61000       -0.44620
C          1.32790       -0.69300       -0.20230
C          0.66430       -0.66080        1.14890
C          1.15410       -0.10110        2.47980
O          0.54540       -1.20100        3.18870
C          0.09110       -1.81620        1.95890
H          0.86880        1.99480        0.34510
H         -0.14100        1.88730       -1.10090
H         -0.89870        1.92320        0.50140
H         -1.21890       -0.47960       -1.39870
H          1.29640       -1.63240       -0.74580
H          2.23130       -0.10770       -0.34870
H          2.24450       -0.07950        2.61300
H          0.73680        0.86790        2.78470
H         -0.99860       -1.92500        1.92460
H          0.56080       -2.79470        1.79370
