13
gdb 14808	2.59494	2.19732	1.33078	4.0229	63.32	-0.2824	-0.0073	0.2751	882.8165	0.094491	-361.409113	-361.401576	-361.400632	-361.441523	26.588
C         -0.23160       -1.23700       -0.25120
C         -0.15980       -0.04670       -0.10560
C         -0.06510        1.38100        0.08230
C          0.08980        1.94460        1.52170
O          1.22900        2.74280        1.12760
C          1.30390        2.11300       -0.15950
C          2.48370        1.25500       -0.30600
N          3.41950        0.58920       -0.43030
H         -0.28530       -2.28990       -0.38250
H         -0.85530        1.89840       -0.46730
H         -0.73270        2.56270        1.89150
H          0.35850        1.18820        2.26600
H          1.29670        2.84590       -0.97340
