16
gdb 10994	2.95756	2.41814	1.76597	2.2274	59.55	-0.2347	0.0531	0.2878	774.978	0.130962	-420.841165	-420.834225	-420.833281	-420.87174	27.744
O         -0.16750        1.38900       -0.14060
C         -0.00630       -0.00660       -0.01930
C          0.04890       -0.61360        1.41410
C         -1.45120       -0.27820        1.55570
C         -1.41460       -0.68210        0.03710
O         -2.40900       -0.41100       -0.88300
C         -0.99630       -2.14810        0.15290
O          0.06740       -2.02360        1.12790
H          0.69000        1.81040       -0.02970
H          0.72100       -0.40840       -0.73630
H          0.80730       -0.36810        2.15500
H         -2.04120       -0.89130        2.23950
H         -1.63880        0.78530        1.69640
H         -2.42750        0.54550       -1.00700
H         -1.79490       -2.79620        0.53120
H         -0.60980       -2.56000       -0.78570
