16
gdb 17338	3.63715	2.20847	1.79529	3.2504	63.14	-0.2582	0.0659	0.3241	781.909	0.130351	-383.710323	-383.703664	-383.70272	-383.74076	26.256
C         -0.05280        1.54460        0.04620
C          0.14690        0.05770       -0.03330
O         -0.55500       -0.75500        0.91360
C          0.87520       -0.77850        0.94330
C          1.51930       -1.97120        0.24210
C          1.10710       -1.83830       -1.22270
O         -0.29740       -1.92100       -1.46760
C          0.29100       -0.62300       -1.39320
H          0.72260        2.07360       -0.51880
H         -1.02520        1.82800       -0.37130
H         -0.01670        1.88170        1.08490
H          1.32380       -0.37650        1.85030
H          2.61040       -1.90730        0.32720
H          1.20330       -2.92590        0.67430
H          1.73870       -2.25150       -2.00630
H          0.26110       -0.02940       -2.30330
