16
gdb 18675	3.11433	2.2518	1.54069	3.1272	64.29	-0.2445	-0.0269	0.2176	831.0393	0.132069	-383.75525	-383.74855	-383.747606	-383.786183	25.757
O          0.07340       -0.01140       -0.31290
C          0.01020        1.17340       -0.07710
C         -1.28570        1.94680        0.08030
C         -1.30170        3.10910       -0.93580
C         -0.15290        4.11030       -0.71410
C          1.15940        3.46200       -0.30640
O          1.23690        3.01710        1.04260
C          1.25300        2.01420        0.01500
H         -2.11890        1.25980       -0.08110
H         -1.34470        2.34240        1.10080
H         -1.22470        2.68700       -1.94520
H         -2.26350        3.62950       -0.89100
H          0.00590        4.69850       -1.62410
H         -0.41680        4.82350        0.07640
H          2.07130        3.94510       -0.65870
H          2.19090        1.47690       -0.10970
