16
gdb 17082	5.35969	1.51441	1.43979	0.8689	80.26	-0.2144	-0.0228	0.1916	906.5369	0.131689	-309.408594	-309.402082	-309.401138	-309.439006	26.503
C          0.07020       -1.15050       -0.03310
C         -0.00770        0.05320       -0.01270
C         -0.04350        1.45730        0.01160
C         -1.07350        2.32460        0.01890
C         -0.39260        3.69290        0.04810
C          0.74110        3.46520       -1.01420
C          1.18720        2.39540        0.03750
C          0.72460        3.42790        1.11900
H          0.12270       -2.21050       -0.05130
H         -2.13460        2.12330        0.00720
H         -1.01760        4.58470        0.05880
H          0.44290        3.10980       -2.00310
H          1.43440        4.30830       -1.09290
H          2.17420        1.93630        0.03710
H          1.41650        4.26750        1.23790
H          0.41140        3.03810        2.09020
