12
gdb 5296	5.25966	1.61943	1.2382	2.7114	56.61	-0.2529	-0.0254	0.2274	880.8911	0.085618	-414.725688	-414.718937	-414.717992	-414.756946	24.212
N         -0.09730        1.31730        0.00800
C          0.05390       -0.03280        0.00250
O          1.12760       -0.60920       -0.00870
C         -1.23200       -0.77410        0.01100
C         -1.40430       -2.11970        0.00790
O         -2.74140       -2.37180        0.01840
C         -3.31970       -1.14580        0.02750
N         -2.48530       -0.16180        0.02390
H          0.72360        1.89780        0.00330
H         -1.01620        1.72720        0.01770
H         -0.73590       -2.96180       -0.00080
H         -4.39780       -1.11760        0.03690
