17
gdb 19984	3.70307	1.38428	1.12461	1.6113	75.49	-0.2412	0.0377	0.279	1078.9397	0.141574	-326.646944	-326.638996	-326.638052	-326.679656	29.944
C         -0.19050       -1.22790        0.07180
C         -0.08320       -0.03030        0.06350
C          0.02770        1.40140        0.01280
N          0.56830        2.09220        1.21090
C          1.35050        2.11050       -0.02860
C          2.65320        1.38630       -0.02890
C          3.52740        1.42410       -1.25810
C          3.94500        2.16730       -0.01520
H         -0.28410       -2.28530        0.09080
H         -0.78690        1.89260       -0.51600
H          0.07630        2.97210        1.34360
H          1.35140        3.03570       -0.60650
H          2.63740        0.45890        0.53290
H          4.06320        0.52210       -1.53070
H          3.18540        2.00790       -2.10680
H          3.88420        3.25090       -0.02740
H          4.76960        1.77790        0.57110
