16
gdb 11604	6.35953	0.92981	0.84031	2.034	62.79	-0.2479	0.0559	0.3038	1310.2496	0.130605	-417.072168	-417.063696	-417.062752	-417.106454	29.945
N         -0.11520        1.30030        0.29650
C         -0.00310       -0.02460       -0.10980
O          0.93380       -0.43160       -0.77200
N         -1.03340       -0.82820        0.32600
C         -0.98510       -2.26710        0.14870
C         -2.33200       -2.79960       -0.26830
C         -2.84290       -4.08190        0.22580
O         -3.32510       -2.85010        0.76630
H          0.50770        1.90920       -0.21230
H         -1.04370        1.67640        0.41910
H         -1.63920       -0.48550        1.05480
H         -0.23190       -2.46180       -0.61910
H         -0.66670       -2.77410        1.07030
H         -2.70720       -2.42170       -1.22000
H         -3.55840       -4.64400       -0.37210
H         -2.23130       -4.68030        0.89990
