15
gdb 18230	4.46867	1.62098	1.34695	3.7607	61.39	-0.2318	-0.0245	0.2073	892.9151	0.119123	-399.778407	-399.771404	-399.77046	-399.810246	25.644
O         -0.72140        0.78590        0.63710
C          0.22690        0.80340       -0.10350
C          1.39110        1.78120        0.01700
N          2.65710        1.07190       -0.18980
C          3.61940        1.93880       -0.88610
C          2.73890        2.90180       -1.65040
O          1.69040        2.26900       -2.39080
C          1.38200        2.81490       -1.10290
H          0.34070        0.09660       -0.95190
H          1.29510        2.31160        0.97740
H          3.02540        0.67290        0.66240
H          4.26650        2.52540       -0.21290
H          4.26620        1.34380       -1.54150
H          3.15160        3.80720       -2.08550
H          0.66960        3.63370       -1.08260
