17
gdb 5306	4.37113	1.57949	1.27029	1.2727	69.67	-0.2359	0.0089	0.2447	981.9546	0.142711	-363.907633	-363.899821	-363.898877	-363.940497	28.479
C          0.15880        1.61540       -0.09360
C          0.02020        0.10010        0.08760
C          0.46530       -0.67260       -1.17060
C          0.78000       -0.36420        1.29130
N          1.61530        0.28870        2.03710
C          2.02880       -0.63020        2.99540
C          1.40920       -1.80980        2.77200
O          0.60130       -1.65770        1.67930
H          1.20340        1.89180       -0.26090
H         -0.42980        1.94410       -0.95530
H         -0.18600        2.15480        0.79170
H         -1.03700       -0.14040        0.26570
H          1.51370       -0.45930       -1.40360
H          0.35880       -1.75150       -1.03150
H         -0.14190       -0.37490       -2.03080
H          2.73540       -0.36910        3.76700
H          1.41180       -2.77900        3.23980
