14
gdb 12720	3.04213	2.35646	1.75685	4.0755	57.32	-0.2604	-0.0091	0.2513	772.0608	0.106582	-419.676058	-419.669166	-419.668222	-419.707081	25.379
C         -0.19180        1.48370        0.03650
C          0.04960        0.00460        0.03260
O         -1.15090       -0.80390        0.13000
C         -0.56320       -1.65000        1.15240
C          0.77310       -0.91450        1.04520
O          1.61230       -1.44980       -0.01800
C          1.03170       -0.63630       -0.97720
O          1.29240       -0.57570       -2.13220
H          0.75450        2.03270        0.03940
H         -0.74420        1.76250       -0.86640
H         -0.78190        1.77710        0.90860
H         -1.07790       -1.51930        2.11100
H         -0.54280       -2.70730        0.87250
H          1.35190       -0.62230        1.91770
