18
gdb 8339	4.75489	1.38923	1.31015	0.5596	77.51	-0.2581	0.0555	0.3136	994.6275	0.153839	-310.588069	-310.580659	-310.579715	-310.619912	29.026
C         -0.03910       -1.20300       -0.00540
C         -0.01950       -0.00110        0.00140
C          0.04010        1.45650        0.00920
C          1.46100        1.99270       -0.00140
C          2.55480        1.76570       -1.08860
C          3.21050        2.67880       -0.01420
C          1.88600        3.49350        0.00450
C          2.57620        1.75130        1.06070
H         -0.07050       -2.26400       -0.01110
H         -0.50080        1.85160       -0.86140
H         -0.48400        1.84160        0.89440
H          2.94560        0.74910       -1.17930
H          2.36900        2.21440       -2.06910
H          4.22470        3.07770       -0.02170
H          1.65030        4.07240       -0.89360
H          1.66840        4.06020        0.91480
H          2.41010        2.18680        2.05060
H          2.96860        0.73360        1.13000
