10
gdb 21404	4.06057	2.06063	1.36694	1.3691	54.21	-0.2863	-0.114	0.1723	787.8436	0.059717	-446.755759	-446.749156	-446.748212	-446.787098	23.285
N         -0.09200        1.30270        0.30940
C          0.01040        0.09960       -0.05230
N         -1.13570       -0.68960       -0.15260
C         -1.19350       -1.99390       -0.52590
O         -2.17750       -2.66880       -0.61150
N          0.11650       -2.57960       -0.84440
N          1.16510       -1.98910       -0.79080
O          1.16610       -0.52700       -0.36510
H          0.81760        1.75810        0.33920
H         -2.00450       -0.22590        0.08030
