18
gdb 14763	11.25124	0.56939	0.55001	5.2593	70.29	-0.2483	0.0223	0.2706	1901.8804	0.153051	-381.112354	-381.102719	-381.101775	-381.147894	32.411
O         -0.09980        1.45140        0.00740
C          0.01940        0.03860       -0.01820
C         -1.38870       -0.54280       -0.00830
C         -1.39770       -2.06920       -0.00070
N         -2.76700       -2.57730       -0.03650
C         -2.82490       -4.03150        0.02830
C         -4.21090       -4.50760        0.04140
N         -5.30180       -4.88520        0.07580
H          0.78400        1.82970       -0.00900
H          0.55610       -0.30180       -0.91910
H          0.58350       -0.33060        0.85440
H         -1.91210       -0.16060        0.87750
H         -1.93670       -0.17820       -0.88310
H         -0.87810       -2.44980       -0.89090
H         -0.83090       -2.44470        0.87340
H         -3.30050       -2.18370        0.73250
H         -2.32770       -4.44420       -0.85890
H         -2.30820       -4.46800        0.90390
