15
gdb 3343	4.19616	3.32454	2.20975	0.4014	56.33	-0.2282	0.0811	0.3093	618.5213	0.126679	-345.620593	-345.614769	-345.613825	-345.650061	22.633
C         -0.00200        1.55270       -0.07720
C          1.30170        0.78150        0.02670
O          2.01690        0.90320        1.22580
C          1.78150       -0.18430        2.11190
C          0.29450       -0.31590        2.39790
O         -0.43450       -0.62000        1.21470
C         -0.01040        0.04740        0.06150
H         -0.25500        2.15130        0.79060
H         -0.29340        1.98000       -1.03050
H          1.94510        0.69490       -0.84650
H          2.16580       -1.12480        1.68860
H          2.33260        0.03990        3.02950
H          0.09860       -1.13690        3.09430
H         -0.07160        0.61760        2.85220
H         -0.29430       -0.52980       -0.81240
