14
gdb 20714	7.31314	1.26911	1.08875	1.3277	75.34	-0.2303	-0.0177	0.2126	1043.1256	0.107622	-341.585341	-341.577807	-341.576863	-341.617231	27.563
C         -0.00140        1.49450       -0.08970
C          0.00240        0.00460        0.04820
N         -0.06130       -0.77790       -1.03230
N         -0.03780       -2.03130       -0.55670
C          0.03960       -2.08870        0.80530
C          0.06750       -0.76810        1.22830
C          0.07630       -3.30880        1.51080
C          0.10690       -4.35930        2.09900
H          0.90630        1.93740        0.33430
H         -0.05850        1.76910       -1.14490
H         -0.85510        1.94180        0.43070
H         -0.07610       -2.80960       -1.19320
H          0.12660       -0.42660        2.24860
H          0.13430       -5.28140        2.62500
