15
gdb 1704	3.81244	2.43319	1.96182	2.904	61.14	-0.2664	0.027	0.2934	710.5963	0.126261	-304.69768	-304.690635	-304.68969	-304.728521	25.984
N          0.16580        1.54940       -0.24510
C         -0.03390        0.13040        0.02530
C          0.12920       -0.29440        1.52140
C         -1.18400       -1.11230        1.41120
C         -1.52590       -0.32910        0.11700
C          0.74630       -0.73840       -0.87270
N          1.37480       -1.38590       -1.59720
H          1.15240        1.78270       -0.15700
H         -0.08710        1.75680       -1.20870
H          1.04490       -0.82150        1.79310
H          0.01470        0.59350        2.14700
H         -0.99430       -2.16990        1.21390
H         -1.88880       -1.03250        2.23990
H         -2.14600        0.54830        0.31350
H         -1.92970       -0.88380       -0.73120
