17
gdb 20542	4.41041	1.5674	1.24674	3.1409	68.93	-0.2539	0.0157	0.2697	984.4549	0.144273	-360.082076	-360.074344	-360.0734	-360.114855	28.228
C          0.10170        1.52840        0.08680
C         -0.05280        0.00270       -0.05180
C         -1.52750       -0.42020       -0.07930
C          0.71340       -0.48960       -1.24740
N          2.01050       -0.32390       -1.46140
C          2.21050       -0.93610       -2.65950
N          1.13360       -1.47140       -3.20900
N          0.18420       -1.17310       -2.28690
H          1.15770        1.80570        0.09350
H         -0.38120        2.04620       -0.74910
H         -0.36120        1.87540        1.01580
H          0.41990       -0.45720        0.82580
H         -2.05420        0.02390       -0.93230
H         -1.64050       -1.50850       -0.12940
H         -2.03430       -0.07870        0.82720
H          3.17600       -0.99000       -3.14030
H         -0.76640       -1.46520       -2.43940
