15
gdb 16676	3.45588	1.9881	1.71949	3.3251	67.35	-0.2339	0.0006	0.2344	813.7718	0.119554	-362.638283	-362.631522	-362.630578	-362.669139	25.889
C          0.05320        1.43680        0.05590
C         -0.07170       -0.04770        0.02460
C         -0.07190       -0.92080       -1.00830
C         -0.03610       -2.28030       -0.33130
N         -0.91890       -2.12830        0.86650
C         -0.04750       -0.97300        1.23790
C          1.11500       -1.92460        0.70610
O          2.23880       -2.19690        0.94620
H          0.97680        1.74050        0.56470
H          0.07220        1.85720       -0.95320
H         -0.77460        1.90010        0.60620
H          0.03660       -0.72120       -2.06540
H         -0.08770       -3.19990       -0.90940
H         -1.84800       -1.80180        0.58640
H         -0.10610       -0.57090        2.24750
