22
gdb 13818	3.7233	1.11617	0.99829	1.7018	78.94	-0.2558	0.0878	0.3436	1308.9192	0.198037	-350.201297	-350.191409	-350.190464	-350.236365	35.691
C          0.03250        1.51820        0.50820
C         -0.01690        0.04330        0.92760
C         -1.32250       -0.60560        0.53310
O         -1.51980       -0.89320       -0.85970
C         -1.48860       -1.99070        0.06040
C         -0.38140       -3.01260       -0.09730
C         -0.28340       -3.88680        1.16100
C         -0.62510       -3.85530       -1.35820
H          0.98040        1.98010        0.79940
H         -0.07480        1.61090       -0.57660
H         -0.77660        2.09060        0.97490
H          0.82110       -0.49500        0.47590
H          0.09760       -0.04040        2.01640
H         -2.19780       -0.14510        1.00080
H         -2.47220       -2.44340        0.22320
H          0.56530       -2.47740       -0.22860
H         -1.22160       -4.42520        1.34020
H          0.50970       -4.63360        1.05530
H         -0.06760       -3.28770        2.05150
H          0.18760       -4.57200       -1.51400
H         -1.55940       -4.42360       -1.27640
H         -0.69540       -3.21600       -2.24270
