17
gdb 11382	4.31713	1.41016	1.12714	4.3518	71.2	-0.2412	-0.0263	0.215	1058.1231	0.143072	-363.917673	-363.909881	-363.908937	-363.950011	28.907
C          0.06400        1.57670        0.01250
C          0.03400        0.04750        0.07500
C         -1.38860       -0.53800        0.00540
N         -2.06540       -0.28640       -1.25210
C         -2.52700       -1.43290       -1.87050
O         -3.18270       -1.48790       -2.88890
C         -2.03930       -2.55080       -1.00550
C         -1.41260       -2.04790        0.05790
H          1.08790        1.95150        0.09850
H         -0.34010        1.94490       -0.93620
H         -0.52250        2.02070        0.82490
H          0.62250       -0.37760       -0.74570
H          0.49470       -0.29250        1.01090
H         -1.97010       -0.12950        0.84920
H         -2.38370        0.62100       -1.54690
H         -2.21290       -3.58740       -1.25690
H         -0.94590       -2.59380        0.86840
