15
gdb 11329	6.35881	1.33886	1.1215	0.3809	68.63	-0.2366	0.0077	0.2443	1029.1638	0.119945	-396.010038	-396.002253	-396.001309	-396.0429	27.384
C         -0.00780        1.44410        0.08550
N         -0.01440       -0.00660        0.15980
C         -1.10100       -0.62830        0.06460
N         -1.21940       -2.01460        0.12240
C         -2.51910       -2.45440       -0.00710
N         -3.03210       -3.61410       -0.00720
C         -3.31750       -1.17180       -0.16700
O         -2.35530       -0.11200       -0.10910
H          0.63630        1.76120       -0.74280
H         -0.99800        1.89260       -0.05320
H          0.43270        1.85150        1.00280
H         -0.40750       -2.59550        0.24770
H         -2.33020       -4.34510        0.11290
H         -3.84020       -1.14300       -1.12750
H         -4.04720       -1.05160        0.63900
