12
gdb 1653	5.44603	2.00059	1.47674	1.9931	47.89	-0.251	-0.0451	0.2059	774.4123	0.089078	-397.709232	-397.701624	-397.70068	-397.741402	25.503
C         -0.01570        1.37330        0.01200
O          0.02510       -0.06120       -0.03280
C          0.62970       -0.58010       -1.09380
O          1.13120        0.05260       -1.99400
C          0.62100       -2.12610       -1.05000
N          1.24430       -2.62940       -2.14100
O          0.11930       -2.76390       -0.15250
H          0.99730        1.78290        0.02450
H         -0.54620        1.76680       -0.85850
H         -0.54380        1.62340        0.93110
H          1.62420       -1.99850       -2.82720
H          1.31680       -3.62590       -2.25460
