20
gdb 17518	4.36491	1.65724	1.54178	0.312	77.79	-0.2415	0.0819	0.3234	928.4846	0.17814	-311.825934	-311.818645	-311.817701	-311.85728	29.233
C          0.03480        1.53830        0.02810
C          0.02490        0.00480       -0.01490
C         -1.36750       -0.57630        0.00250
C         -2.29410       -0.43550        1.25110
C         -2.95830       -1.72400        0.77780
C         -2.99560       -1.68040       -0.75850
C         -2.35360       -0.36610       -1.18950
C         -1.74890       -2.12130       -0.03210
H          1.05770        1.92650        0.01420
H         -0.49470        1.96280       -0.83150
H         -0.45170        1.91300        0.93500
H          0.54920       -0.34060       -0.91600
H          0.59190       -0.39010        0.83870
H         -1.73660       -0.59380        2.17980
H         -2.89810        0.47620        1.33570
H         -3.62520       -2.37500        1.32880
H         -3.68930       -2.30010       -1.31250
H         -2.95980        0.54800       -1.19260
H         -1.84220       -0.47050       -2.15180
H         -1.16580       -3.03010       -0.07200
