16
gdb 4005	2.64678	1.55178	1.06227	3.3164	68.44	-0.2646	-0.0094	0.2551	1089.843	0.128611	-379.901562	-379.89259	-379.891645	-379.935869	31.419
C          0.10600        0.80830        1.01130
C         -0.27800        0.05190       -0.27340
C         -1.69530       -0.45130       -0.25940
C         -2.13860       -1.56150        0.68560
C         -1.04760       -2.34930        1.24890
N         -0.18760       -2.97800        1.69660
N         -2.52440        0.10950       -1.05280
O         -3.81920       -0.41410       -0.92310
H          1.13730        1.16540        0.94190
H         -0.54600        1.67400        1.16240
H          0.03980        0.16660        1.89470
H         -0.17120        0.70760       -1.14110
H          0.40340       -0.79620       -0.41040
H         -2.72770       -1.13170        1.50580
H         -2.82630       -2.22300        0.14890
H         -4.30500        0.06860       -1.60030
