16
gdb 20828	5.9115	1.28099	1.14343	1.6247	66.99	-0.2747	-0.0132	0.2615	1078.1557	0.130414	-379.948007	-379.939994	-379.93905	-379.981389	28.008
C          0.30170        0.77440        0.89990
C         -0.18310        0.40670       -0.51350
C         -1.58310       -0.10480       -0.52740
N         -2.01040       -1.29350       -0.83220
C         -3.37380       -1.17460       -0.64860
C         -4.32870       -2.29440       -0.87720
N         -3.76390        0.00920       -0.25500
O         -2.56520        0.73490       -0.17120
H          1.32700        1.15150        0.85960
H         -0.33190        1.54780        1.34160
H          0.28420       -0.09860        1.55850
H         -0.12590        1.28760       -1.16300
H          0.44770       -0.36960       -0.95190
H         -4.08070       -3.14170       -0.23090
H         -5.34980       -1.97090       -0.67040
H         -4.26320       -2.64250       -1.91240
