17
gdb 13490	3.0769	1.77635	1.46071	2.4789	64.52	-0.2509	0.0262	0.2771	919.759	0.142106	-401.023092	-401.014861	-401.013917	-401.055796	30.257
C         -0.01330        1.57650        0.03920
C          0.02520        0.04770        0.01580
O          0.78510       -0.47770        1.10150
C         -1.38540       -0.54920        0.00790
C         -1.52070       -2.09900        0.08710
N         -2.28520       -1.90380        1.32840
C         -2.07710       -0.55070        1.39780
O         -2.28710        0.27200        2.25380
H          1.00310        1.97480        0.09940
H         -0.48890        1.97290       -0.86380
H         -0.58650        1.92810        0.90360
H          0.55600       -0.29220       -0.88200
H          0.45030       -0.06900        1.90930
H         -2.00030       -0.09730       -0.77490
H         -2.08640       -2.58010       -0.71540
H         -0.56290       -2.60410        0.23980
H         -2.52630       -2.55560        2.06140
