19
gdb 8292	5.26009	1.0344	0.97112	2.3733	76.11	-0.2444	0.0334	0.2778	1293.3985	0.164435	-365.072124	-365.063291	-365.062347	-365.106519	31.568
C         -0.57380        1.42230       -0.01420
C          0.02160        0.02200        0.14050
N          0.62950       -0.41110       -1.11550
C          1.80630       -0.83230       -1.11580
C          2.75760       -1.34860       -2.17210
C          3.73420       -1.51540       -0.98500
C          4.99340       -0.67830       -0.96570
O          2.70970       -0.98970       -0.07280
H          0.20990        2.15740       -0.22280
H         -1.28670        1.44610       -0.84340
H         -1.09160        1.72520        0.90150
H          0.73000        0.00120        0.97900
H         -0.78290       -0.68550        0.37970
H          2.43930       -2.26610       -2.66990
H          3.05300       -0.61150       -2.92210
H          3.94390       -2.55740       -0.72320
H          4.77340        0.36090       -1.22880
H          5.45160       -0.69350        0.02770
H          5.72000       -1.07320       -1.68370
