17
gdb 15164	7.70238	0.69201	0.66681	2.824	73.77	-0.2476	0.0308	0.2784	1658.6441	0.141489	-363.793819	-363.784811	-363.783867	-363.829493	30.944
O          0.35180        0.86930        0.64330
C         -0.06250        0.01050       -0.41090
C         -1.42850       -0.48860       -0.25680
C         -2.56820       -0.85390       -0.11790
C         -3.93490       -1.33740        0.06090
C         -4.01010       -2.82710        0.36220
C         -5.18990       -3.60860       -0.07970
N         -3.87470       -3.81330       -0.71520
H         -0.32140        1.55100        0.73910
H          0.03660        0.50440       -1.39110
H          0.64570       -0.82570       -0.40770
H         -4.41220       -0.78060        0.87910
H         -4.52910       -1.12130       -0.83820
H         -3.50350       -3.11890        1.27930
H         -5.54870       -4.44520        0.51280
H         -5.96460       -3.08580       -0.63610
H         -3.84510       -3.34100       -1.61630
