15
gdb 2514	3.36729	2.05205	1.35559	2.3015	63.86	-0.2523	-0.0319	0.2203	878.6883	0.121871	-308.496245	-308.487945	-308.487001	-308.529245	28.658
C         -0.06360        1.56880        0.00060
C          0.03380        0.04190        0.00350
C          0.71470       -0.52940       -1.27440
C          2.19370       -0.13140       -1.27420
O          2.65940        0.74390       -1.95190
C          0.60720       -1.98160       -1.33860
C          0.55820       -3.18240       -1.36850
H          0.92030        2.04020       -0.07920
H         -0.66700        1.92290       -0.84170
H         -0.53370        1.92330        0.92240
H          0.58930       -0.30890        0.88170
H         -0.96300       -0.40430        0.07400
H          0.25860       -0.07090       -2.15950
H          2.81300       -0.71400       -0.55590
H          0.49930       -4.24210       -1.41020
