15
gdb 2602	3.08328	2.76798	1.75275	2.1673	57.86	-0.2578	-0.0374	0.2204	748.6572	0.122833	-345.646761	-345.639221	-345.638277	-345.678533	26.553
C         -0.46110        1.44160       -0.05440
C          0.19540        0.06550        0.11490
C          0.82320       -0.43870       -1.16400
C          0.66860       -1.84170       -1.61520
O         -0.06740       -0.80380       -2.23730
C          2.05450        0.25510       -1.66720
O          2.71960        1.01920       -1.01580
H          0.27930        2.19760       -0.32850
H         -1.22850        1.40950       -0.83340
H         -0.93610        1.75760        0.87860
H          0.98020        0.11560        0.87730
H         -0.54580       -0.66550        0.45380
H          1.43400       -2.31190       -2.23240
H          0.09980       -2.51820       -0.97900
H          2.30370       -0.00560       -2.72020
