18
gdb 18368	3.37854	2.14143	1.59233	2.1904	66.94	-0.2445	0.0792	0.3236	850.1206	0.155243	-384.930064	-384.923013	-384.922069	-384.96124	27.093
C         -0.37070        1.52820       -0.07640
C          0.04020        0.06880        0.01080
O          0.89940       -0.24440       -1.08640
C          1.50290       -1.49630       -0.78730
C          1.78330       -1.47070        0.71450
O          2.94500       -0.69020        1.05770
C          2.13230        0.38200        1.57880
C          0.82580       -0.37470        1.25410
H          0.49780        2.18930       -0.01560
H         -0.87530        1.71920       -1.02720
H         -1.06020        1.77990        0.73540
H         -0.86570       -0.56230       -0.04900
H          0.81980       -2.32930       -1.02650
H          2.41300       -1.59510       -1.38390
H          1.80290       -2.46230        1.17790
H          2.31840        0.54940        2.64660
H          2.29780        1.31880        1.03490
H          0.18990       -0.61520        2.10580
