15
gdb 3563	5.16032	3.08239	3.02043	1.8815	58.9	-0.2524	0.0918	0.3442	549.7812	0.127986	-308.467888	-308.463078	-308.462134	-308.496088	20.497
C         -0.06030        1.59030       -0.04050
C          1.48480        1.42540       -0.01360
C          1.22120        0.19320        0.92520
C         -0.03500        0.03680       -0.00590
C          0.68000       -0.31110       -1.33140
O          0.71200        0.73230       -2.31920
C          1.75960        0.67520       -1.33690
H         -0.43650        2.00730        0.89500
H         -0.51090        2.07870       -0.90210
H          2.15540        2.23840        0.26250
H          1.95960       -0.61500        0.92450
H          0.96890        0.47500        1.95080
H         -0.90350       -0.55650        0.27800
H          0.75280       -1.32780       -1.70240
H          2.76350        0.50930       -1.71260
