13
gdb 1608	4.39622	2.2446	1.51429	5.0952	57.54	-0.2706	-0.0495	0.2211	769.1661	0.100841	-340.668108	-340.660282	-340.659338	-340.700238	25.995
C         -0.09180        1.43730        0.04250
N         -0.00080       -0.01430        0.00350
C          0.03480       -0.70260        1.28190
C          0.04300       -0.63010       -1.20720
O          0.01350       -0.07610       -2.28880
C          0.13490       -2.10510       -1.15860
N          0.20710       -3.25760       -1.20970
H          0.77050        1.85680        0.57350
H         -0.11030        1.81210       -0.97940
H         -1.00460        1.74590        0.56490
H         -0.87210       -0.48290        1.85750
H          0.10180       -1.78020        1.13420
H          0.90170       -0.37380        1.86700
