16
gdb 3229	5.23354	2.63399	2.29852	1.7787	63.83	-0.2014	0.0833	0.2846	648.5009	0.137183	-288.557016	-288.550883	-288.549938	-288.586398	24.787
C         -0.03670        1.52530        0.04730
C          0.09700        0.03690        0.01400
N         -0.85180       -0.87420        0.70560
C          0.61000       -0.93980        0.99430
C          1.30760       -1.75690       -0.13090
C          0.34400       -2.20700       -1.19660
C          0.76960       -0.76330       -1.15170
H          0.89910        2.00970       -0.25330
H         -0.82290        1.87000       -0.63550
H         -0.28710        1.87600        1.05470
H         -1.27530       -0.33850        1.46350
H          0.98510       -0.79670        2.00010
H          2.31290       -2.14680       -0.04030
H          0.80000       -2.78190       -1.99710
H         -0.66830       -2.49030       -0.93990
H          1.30170       -0.27800       -1.96030
