14
gdb 6433	3.5641	1.6221	1.37627	3.4829	58.15	-0.274	-0.0522	0.2217	903.3728	0.104589	-419.715147	-419.707385	-419.706441	-419.747773	27.495
C         -0.16940        1.75960        0.12870
C          0.02870        0.26170       -0.00970
C          0.71420       -0.28160       -1.27350
C          1.81360       -0.70780       -0.30330
O          2.86910       -1.24730       -0.33800
O          1.16670       -0.21020        0.81140
C         -1.20650       -0.50820        0.43850
O         -1.93380       -1.10820       -0.30650
H          0.76200        2.28450       -0.10080
H         -0.94810        2.10300       -0.55920
H         -0.46760        2.02020        1.14900
H          0.18860       -1.10110       -1.76540
H          1.02710        0.45980       -2.01010
H         -1.38250       -0.46650        1.53550
