17
gdb 10941	4.82325	1.4859	1.41785	2.8512	69.19	-0.2474	-0.0309	0.2166	933.2907	0.141697	-363.836015	-363.82832	-363.827376	-363.867956	28.575
C         -0.07920        1.48060       -0.13120
C         -0.10760       -0.00360        0.07180
C         -1.36670       -0.84860        0.35460
C         -0.51780       -1.79390        1.25970
C         -0.33660       -3.22070        0.83430
O         -0.48050       -3.60350       -0.30470
C          0.73350       -0.91140        0.92740
N          0.94730       -0.82750       -0.50610
H          0.95150        1.84390       -0.14260
H         -0.54090        1.75000       -1.08870
H         -0.62810        1.99960        0.66180
H         -2.12640       -0.31640        0.93200
H         -1.83260       -1.31400       -0.51770
H         -0.78190       -1.73400        2.31850
H          0.01230       -3.92200        1.62560
H          1.56010       -0.71370        1.60060
H          0.60800       -1.64640       -1.01030
