16
gdb 3058	5.8671	1.42581	1.28025	1.7018	68.66	-0.2328	0.0459	0.2787	972.959	0.135635	-288.581144	-288.573069	-288.572125	-288.615229	27.539
C          0.07260        0.90030       -0.85470
C         -0.00410       -0.39110       -0.18560
C         -0.05580       -1.45170        0.38470
C         -0.13550       -2.75410        1.05540
N         -0.91280       -3.81050        0.39240
C         -2.11600       -3.43340       -0.34040
C         -0.89230       -3.87970       -1.06430
H          1.05520        1.05610       -1.31350
H         -0.67930        0.98110       -1.64730
H         -0.10040        1.72220       -0.15140
H          0.87760       -3.14820        1.20400
H         -0.56520       -2.62140        2.05620
H         -2.96360       -4.10150       -0.21600
H         -2.36250       -2.37640       -0.41130
H         -0.34320       -3.11280       -1.60590
H         -0.82620       -4.88100       -1.48030
