15
gdb 15243	3.06843	1.64427	1.41924	5.1036	62.64	-0.2555	0.0244	0.2799	929.8366	0.117371	-399.773628	-399.765304	-399.76436	-399.806621	29.321
C          0.29110        1.14970        0.23860
O         -0.28830       -0.03850       -0.29270
C          0.46930       -0.58660       -1.31780
C          1.46130       -1.63720       -0.91430
O          1.62920       -1.92980        0.42460
C          0.16410       -2.04530       -1.64700
C         -0.85270       -2.73370       -0.91030
N         -1.65780       -3.30200       -0.30420
H          1.29120        0.96070        0.64790
H          0.36110        1.93010       -0.53140
H         -0.37260        1.49110        1.03480
H          0.67740        0.07990       -2.15520
H          2.38630       -1.75750       -1.46700
H          0.83600       -1.63380        0.89200
H          0.25010       -2.33520       -2.68880
