14
gdb 16197	3.27876	2.35184	1.5197	3.3859	64.08	-0.2441	-0.0387	0.2054	805.3384	0.10693	-382.543501	-382.536853	-382.535909	-382.574417	25.12
O          0.06290        0.03740       -0.02110
C          0.00550        1.23720        0.00870
C         -1.25680        2.11060       -0.00420
C         -0.70310        3.51410       -0.00660
C          0.63270        3.54860        0.03170
C          1.20000        2.18290        0.07190
C          2.46520        1.75910        0.70220
O          2.35360        1.83810       -0.71060
H         -1.87930        1.88120       -0.87780
H         -1.87090        1.88590        0.87720
H         -1.34300        4.38820       -0.03430
H          1.24970        4.43840        0.03050
H          3.09890        2.51040        1.17250
H          2.52430        0.75090        1.10960
