14
gdb 16686	3.05538	2.29421	1.88538	3.0731	56.7	-0.2311	-0.0197	0.2113	743.8815	0.107326	-419.659993	-419.653477	-419.652533	-419.690568	25.116
O         -0.01100        1.49590        0.07270
C          0.02460        0.10210       -0.00930
C         -1.33270       -0.60840       -0.20150
C         -1.98080        0.10790       -1.39750
C         -0.72170        0.10680       -2.29290
O         -0.55520        0.54560       -3.39480
C          0.26600       -0.62720       -1.36900
O         -0.59530       -1.69380       -0.85890
H          0.88610        1.83140        0.16550
H          0.61010       -0.37370        0.78440
H         -1.95590       -0.93260        0.63020
H         -2.79500       -0.47420       -1.83490
H         -2.31940        1.12640       -1.19550
H          1.23050       -0.94620       -1.75820
