16
gdb 13470	3.31528	1.90161	1.2365	3.4306	69.11	-0.2491	-0.0143	0.2348	951.6048	0.130379	-379.958123	-379.95004	-379.949096	-379.991095	28.607
C         -0.04820        1.49490       -0.23640
C          0.03220       -0.00230       -0.05890
O          1.06240       -0.64400       -0.04960
N         -1.17880       -0.65710        0.10220
C         -1.41010       -2.09550        0.29300
C         -2.93290       -1.77580        0.35550
C         -2.53510       -0.30820        0.14990
N         -3.06840        0.83220        0.04620
H          0.96360        1.88350       -0.35100
H         -0.65770        1.74670       -1.10870
H         -0.54290        1.95810        0.62180
H         -1.08410       -2.70120       -0.55550
H         -0.96630       -2.48570        1.21160
H         -3.53380       -2.19670       -0.45280
H         -3.41620       -1.98140        1.31230
H         -4.08210        0.76400        0.12200
