18
gdb 10501	3.07411	1.32653	1.0388	1.3638	78.02	-0.2286	0.0455	0.2741	1199.0652	0.150967	-347.75562	-347.746178	-347.745234	-347.790921	32.926
C          0.09060        1.24750        0.24380
O         -0.21340       -0.07090       -0.17590
C          0.60020       -0.53330       -1.21880
C          1.95280       -1.10970       -0.82620
C          0.81440       -2.02440       -1.20340
C          0.46710        0.15820       -2.47800
C          0.34360        0.75500       -3.51790
C          0.19070        1.46440       -4.77970
H          1.12430        1.32660        0.61030
H         -0.04860        1.97120       -0.56980
H         -0.59780        1.48390        1.05820
H          2.78010       -0.99170       -1.51580
H          2.20900       -1.04130        0.22510
H          0.31210       -2.55610       -0.40370
H          0.84970       -2.53810       -2.15620
H          0.28090        0.78010       -5.63080
H         -0.79310        1.94210       -4.84590
H          0.94890        2.24630       -4.90000
