18
gdb 294	4.94405	3.06969	2.80861	0.0245	63.32	-0.2837	0.0812	0.3649	603.4335	0.165997	-235.699029	-235.692187	-235.691243	-235.728837	26.214
C         -0.35090        1.59150       -0.03570
C          0.04980        0.12090        0.01680
C         -1.16420       -0.78320       -0.21200
C          1.26500       -0.29690       -0.87580
C          1.85440       -1.08580        0.32360
C          0.88250       -0.32480        1.26420
H          0.51300        2.24490        0.12730
H         -0.78620        1.84970       -1.00870
H         -1.09740        1.82700        0.73260
H         -1.61890       -0.58970       -1.19060
H         -0.89080       -1.84330       -0.17700
H         -1.93050       -0.61240        0.55310
H          1.03790       -0.85790       -1.78710
H          1.88430        0.56360       -1.14700
H          1.63260       -2.15490        0.27000
H          2.92350       -0.97140        0.51620
H          1.36570        0.52580        1.75470
H          0.35640       -0.90770        2.02590
