20
gdb 7665	3.91472	1.71897	1.40495	1.8095	75.61	-0.235	0.0915	0.3265	972.1767	0.175366	-348.941647	-348.933378	-348.932434	-348.973493	32.369
C         -0.20640        1.54980        0.78010
C         -0.12570        0.06110        0.49300
C          1.05170       -0.47260       -0.37250
O          1.97100       -0.13440        0.74090
C          0.81380       -0.82050        1.36490
C          0.89200       -1.90940        0.23770
C         -0.32080       -2.77530       -0.10170
C          2.15630       -2.76800        0.23890
H          0.78280        1.95610        0.99690
H         -0.62610        2.08700       -0.07770
H         -0.86090        1.74360        1.63710
H         -1.11030       -0.35440        0.27500
H          1.36150       -0.17920       -1.37820
H          0.83740       -0.94580        2.45000
H         -1.27150       -2.24140       -0.12500
H         -0.18100       -3.24400       -1.08240
H         -0.41540       -3.58660        0.62890
H          2.06700       -3.57860        0.97120
H          2.30190       -3.23490       -0.74200
H          3.03770       -2.17460        0.47870
