21
gdb 6573	3.60229	1.64745	1.43749	1.5002	78.54	-0.2436	0.0792	0.3228	994.3861	0.187806	-329.102455	-329.093867	-329.092923	-329.134562	33.65
C          0.02020        1.56500        0.03530
C         -0.04760        0.06790        0.07230
C         -1.32760       -0.78380       -0.01080
C         -0.68590       -1.81500        0.99210
C         -1.36240       -1.76590        2.36290
C         -0.54460       -3.25650        0.50640
C          0.59590       -0.94690        0.97740
N          1.10820       -0.70920       -0.36840
H          1.03200        1.90570        0.27020
H         -0.23850        1.94470       -0.96080
H         -0.67680        2.01160        0.75270
H         -2.21310       -0.29590        0.40590
H         -1.57490       -1.15660       -1.01160
H         -2.36740       -2.20070        2.32270
H         -0.78420       -2.32860        3.10530
H         -1.45430       -0.73610        2.72420
H         -0.02550       -3.32050       -0.45590
H          0.01760       -3.86120        1.22710
H         -1.52800       -3.72260        0.37590
H          1.27830       -0.81690        1.81260
H          0.87060       -1.45110       -1.02460
