16
gdb 4904	6.47065	1.23132	1.04798	1.9101	67.95	-0.2052	0.0405	0.2457	1100.6884	0.130989	-379.962759	-379.954425	-379.953481	-379.996438	29.208
C         -0.03400        1.46730        0.00260
C          0.00160       -0.02460       -0.02340
N         -0.03450       -0.77940       -1.10140
C          0.02090       -2.08220       -0.65450
C          0.00160       -3.23130       -1.60840
O          0.06040       -4.43600       -0.85860
C          0.09130       -2.11810        0.71020
N          0.07750       -0.79340        1.10330
H          0.86600        1.89100        0.46340
H         -0.09810        1.83070       -1.02370
H         -0.89940        1.84720        0.55820
H         -0.91180       -3.18230       -2.22340
H          0.85320       -3.14640       -2.30310
H          0.05160       -5.17080       -1.47750
H          0.14690       -2.93250        1.41050
H          0.11650       -0.45880        2.05110
