20
gdb 7205	5.8872	0.71283	0.66221	1.3464	68.17	-0.2581	0.0685	0.3265	1664.1213	0.174576	-423.261808	-423.251415	-423.250471	-423.297746	36.02
O         -0.10000        1.46180        0.03850
C          0.01880        0.04600        0.04240
C         -1.38620       -0.53750       -0.03430
C         -1.40350       -2.06870       -0.01150
O         -0.75540       -2.58240        1.15690
C         -2.82040       -2.63090       -0.15900
C         -2.85810       -4.15290       -0.20700
O         -4.21800       -4.54870       -0.31980
H          0.78050        1.83550        0.13560
H          0.61220       -0.30680       -0.81770
H          0.51720       -0.31740        0.95170
H         -1.97690       -0.14980        0.80730
H         -1.87330       -0.17690       -0.94780
H         -0.78510       -2.44310       -0.83910
H         -1.26020       -2.28110        1.92150
H         -3.44220       -2.28770        0.67950
H         -3.28160       -2.23340       -1.07060
H         -2.26620       -4.50960       -1.06660
H         -2.39040       -4.55970        0.70030
H         -4.25180       -5.50940       -0.30130
