19
gdb 1268	6.00945	1.06449	0.95212	0.088	77.09	-0.2393	0.0609	0.3002	1289.1717	0.169677	-273.773955	-273.764645	-273.7637	-273.809344	32.262
C         -0.03740        1.56500        0.06500
C          0.01100        0.02730        0.00270
C          0.67730       -0.47750       -1.19430
C          1.23820       -0.86600       -2.18800
C          1.89710       -1.35860       -3.39910
C          1.96930       -2.89870       -3.40500
C          1.20010       -0.82760       -4.66750
H          0.97190        1.98550        0.05920
H         -0.57560        1.97140       -0.79570
H         -0.54410        1.89580        0.97670
H          0.52170       -0.35760        0.89520
H         -1.01090       -0.37150        0.04850
H          2.92840       -0.97740       -3.40200
H          2.49060       -3.27120       -2.51930
H          0.96380       -3.33080       -3.41220
H          2.50130       -3.25150       -4.29460
H          1.17450        0.26530       -4.67370
H          1.72970       -1.16700       -5.56380
H          0.16880       -1.19040       -4.72010
