18
gdb 13268	7.18743	0.77965	0.75947	1.7964	78.52	-0.2417	0.0299	0.2717	1556.9676	0.152884	-347.759181	-347.750214	-347.74927	-347.796155	30.563
C         -0.65920        1.54450       -0.18800
C          0.27720        0.37750        0.17460
C          0.99230       -0.16610       -0.97470
C          1.56670       -0.60330       -1.93990
C          2.27200       -1.12860       -3.09430
C          3.69490       -1.71590       -2.87550
C          3.10310       -3.00150       -3.48170
O          1.78320       -2.42190       -3.54770
H         -0.09630        2.37210       -0.62800
H         -1.41250        1.22600       -0.91350
H         -1.17290        1.91270        0.70500
H          1.00250        0.70800        0.92940
H         -0.30200       -0.42570        0.64810
H          2.23030       -0.40150       -3.91730
H          4.49410       -1.23190       -3.43790
H          3.97780       -1.79290       -1.82580
H          3.48240       -3.26500       -4.47740
H          3.12560       -3.89430       -2.84640
