19
gdb 10345	2.38844	1.66897	1.15777	3.7999	68.77	-0.2371	0.028	0.2651	1106.8975	0.162876	-402.22653	-402.216327	-402.215383	-402.262146	35.
C         -0.43140        0.85840        0.64240
C         -0.16690       -0.50680        0.00430
C          0.53680       -0.40280       -1.35720
O          1.77470        0.21750       -1.14190
C          2.48820        0.53930       -2.31890
C          0.70070       -1.81200       -1.97140
N         -0.40460       -2.26690       -2.63330
O          1.71830       -2.46400       -1.86390
H          0.50300        1.40990        0.76640
H         -1.10090        1.46400        0.02080
H         -0.89920        0.74490        1.62490
H          0.47040       -1.11520        0.65560
H         -1.10610       -1.05660       -0.12620
H         -0.08040        0.20840       -2.04350
H          2.78520       -0.35980       -2.87100
H          1.89640        1.19200       -2.98050
H          3.38560        1.07830       -2.00680
H         -1.25480       -1.73470       -2.69360
H         -0.40090       -3.21260       -2.97900
