10
gdb 8959	5.37693	0.93853	0.79906	3.4399	81.85	-0.2684	-0.1011	0.1673	1290.7685	0.057083	-342.916273	-342.908369	-342.907425	-342.94908	27.43
O          0.02190       -0.08480        0.00360
C         -0.00870        1.13030        0.00680
C          1.18750        1.94640        0.00060
C          2.18390        2.62150       -0.00450
C         -1.24350        1.87850        0.01700
C         -2.29250        2.48800        0.02570
C         -3.46440        3.17090        0.03540
C         -4.50760        3.77950        0.04400
H          3.06840        3.21130       -0.00900
H         -5.42570        4.31410        0.05160
