15
gdb 11012	4.38148	1.7705	1.47389	4.326	61.21	-0.2407	0.0097	0.2504	855.9428	0.119298	-399.825649	-399.818507	-399.817563	-399.856828	26.843
C          0.03520        1.51730       -0.04950
C         -0.07060        0.02920        0.12240
C         -1.36750       -0.70090       -0.23200
N         -1.30030       -1.90750        0.57420
C         -0.23130       -1.99850        1.42880
O         -0.02380       -2.87230        2.24010
C          0.61820       -0.77390        1.14430
O          1.07540       -0.75350       -0.22350
H          1.02690        1.86210        0.25170
H         -0.11880        1.79730       -1.09750
H         -0.71710        2.03560        0.55330
H         -2.24110       -0.08790        0.02690
H         -1.40800       -0.92220       -1.30560
H         -1.95350       -2.66930        0.48970
H          1.30190       -0.39180        1.89440
