13
gdb 181	9.1832	2.53155	2.06117	0.8763	53.48	-0.2405	0.0074	0.2479	599.0421	0.107557	-286.438084	-286.4319	-286.430956	-286.468514	21.872
O         -0.15010        1.34390        0.18280
N          0.02500       -0.05400        0.13520
C         -1.07980       -0.63920       -0.06100
C         -2.52170       -0.21180       -0.25410
C         -2.89390       -1.72350       -0.38970
C         -1.39240       -2.11780       -0.18580
H          0.74910        1.65410        0.33370
H         -2.95410        0.31150        0.60390
H         -2.69290        0.40380       -1.14220
H         -3.56470       -2.09390        0.38720
H         -3.30290       -2.00150       -1.36240
H         -0.91970       -2.61460       -1.03800
H         -1.18150       -2.70690        0.71140
