18
gdb 8183	2.72185	2.56241	1.7482	1.2472	66.94	-0.2396	0.063	0.3026	815.9125	0.154067	-384.920762	-384.913473	-384.912529	-384.951691	29.174
C         -0.06060        1.52710       -0.00020
C          0.06390        0.01480        0.04940
O          0.91960       -0.49650       -0.99850
C          1.87650       -1.27390       -0.25160
C          2.27220       -0.33920        0.91760
C          0.78480       -0.59310        1.28030
O          0.32270       -0.26500        2.54920
C          1.00380       -2.05670        0.75670
H          0.90920        2.01840        0.10960
H         -0.49290        1.83860       -0.95550
H         -0.71620        1.87540        0.80480
H         -0.93720       -0.43200       -0.05890
H          2.59030       -1.73630       -0.92900
H          2.95010       -0.80660        1.63340
H          2.59530        0.67350        0.67310
H         -0.60710       -0.51160        2.61020
H          0.14650       -2.60390        0.35600
H          1.57840       -2.66670        1.45530
