14
gdb 4466	3.51206	1.88497	1.23793	1.6247	60.81	-0.1858	0.0378	0.2235	924.8256	0.107684	-415.9009	-415.893118	-415.892174	-415.932912	28.218
C          0.13960        1.50170        0.10860
C         -0.04470        0.03470        0.02600
C         -1.09060       -0.81490       -0.13920
N         -2.44450       -0.55570       -0.34520
N         -0.63990       -2.13700       -0.15680
C          0.63880       -2.01070       -0.00410
O          1.55540       -2.97580        0.05270
O          1.10530       -0.77270        0.11590
H          0.79500        1.88190       -0.68500
H         -0.82870        1.99780       -0.00420
H          0.56830        1.81860        1.06780
H         -2.77610        0.27630        0.12340
H         -3.00980       -1.35430       -0.08840
H          1.08260       -3.81070       -0.05440
