17
gdb 13333	5.20531	1.23862	1.15138	3.6774	71.	-0.2482	0.0152	0.2634	1055.9274	0.143605	-363.901718	-363.894115	-363.893171	-363.934893	27.74
O         -0.15680        0.11030        0.59930
C         -0.05360        1.24070        0.17090
N          1.09800        1.82180       -0.25750
C          2.38990        1.14770       -0.25870
C          3.00010        1.11350       -1.68890
C          3.95560        2.28350       -1.68640
C          4.18970        2.72980       -0.45230
C          3.43140        1.93600        0.58540
H         -0.91540        1.93290        0.08410
H          1.05710        2.77210       -0.59330
H          2.19420        0.15230        0.13840
H          3.53720        0.17150       -1.86540
H          2.22110        1.17580       -2.45610
H          4.41340        2.66820       -2.59080
H          4.86800        3.53520       -0.19370
H          2.94250        2.55160        1.34790
H          4.10360        1.25160        1.12090
