18
gdb 11903	4.74611	1.46374	1.2745	1.9898	74.46	-0.24	0.0104	0.2505	1000.9067	0.15396	-347.800991	-347.793499	-347.792555	-347.83297	28.842
C          0.14540        1.60290       -0.03600
C          0.00690        0.07720        0.03860
C          0.59120       -0.67430       -1.19170
C          1.39360       -1.84430       -0.61490
C          1.45880       -3.18860       -1.21180
O          2.56040       -2.28730       -1.32690
C          1.50090       -1.58650        0.84450
C          0.75030       -0.54580        1.20270
H          1.19740        1.89410       -0.12640
H         -0.39230        2.00410       -0.90150
H         -0.26110        2.08240        0.86100
H         -1.06290       -0.15720        0.13810
H         -0.17960       -0.99660       -1.89610
H          1.28330       -0.02530       -1.73890
H          1.62910       -4.06060       -0.57980
H          0.91570       -3.38920       -2.13570
H          2.11180       -2.20150        1.49480
H          0.64460       -0.16880        2.21490
