26
gdb 10224	2.13179	1.15032	0.81106	0.0469	89.28	-0.2945	0.0909	0.3854	1561.9638	0.244963	-315.490766	-315.479656	-315.478712	-315.527417	39.853
C         -1.91430        1.52970        1.55240
C         -1.81570        0.00280        1.48470
C         -1.43450       -0.50930        0.08980
C         -1.33040       -2.04380       -0.03590
C         -2.72880       -2.69690       -0.05930
C         -2.73760       -4.19970        0.24120
C         -0.50880       -2.44670       -1.27870
C          1.00040       -2.21380       -1.15180
H         -2.17500        1.87030        2.55950
H         -0.96390        2.00090        1.27730
H         -2.67930        1.90800        0.86490
H         -1.06910       -0.34760        2.20980
H         -2.77120       -0.43310        1.80120
H         -2.16450       -0.14320       -0.64720
H         -0.47680       -0.05230       -0.18880
H         -0.79910       -2.41920        0.85310
H         -3.37670       -2.19620        0.66910
H         -3.18500       -2.51300       -1.04220
H         -2.14020       -4.76940       -0.47760
H         -2.33310       -4.40220        1.23930
H         -3.75580       -4.60050        0.20890
H         -0.67600       -3.50780       -1.49640
H         -0.89650       -1.89790       -2.14840
H          1.24440       -1.16150       -0.97440
H          1.41820       -2.79320       -0.32070
H          1.52290       -2.51980       -2.06390
