19
gdb 1579	6.30058	1.24169	1.10631	0.1877	65.34	-0.2495	0.089	0.3385	1112.8529	0.168729	-348.034975	-348.025608	-348.024664	-348.06935	31.597
C         -0.24920        1.53430        0.59440
O         -0.31760        0.15420        0.85800
C          0.76610       -0.56380        0.31260
C          0.58210       -2.04470        0.63990
C         -0.69380       -2.61460        0.02000
O          1.75970       -2.67640        0.15950
C          1.99020       -3.96490        0.67730
H         -0.26060        1.74500       -0.48690
H         -1.12410        2.00010        1.05440
H          0.66020        1.98690        1.02050
H          0.81720       -0.43200       -0.78170
H          1.72350       -0.21760        0.73260
H          0.53020       -2.14410        1.73710
H         -0.86610       -3.65090        0.32350
H         -1.55230       -2.01770        0.33730
H         -0.62670       -2.58070       -1.07260
H          1.23580       -4.69530        0.35080
H          2.96650       -4.28970        0.30820
H          2.01170       -3.96220        1.77870
