18
gdb 9949	2.7396	1.56742	1.53704	2.6445	69.35	-0.2474	-0.0204	0.227	969.3819	0.150583	-384.941378	-384.931972	-384.931028	-384.975081	33.345
C         -0.16290        1.36730       -0.09990
C          0.13860       -0.10700        0.04160
C          1.52660       -0.64210       -0.08410
O          2.61240        0.22210       -0.21940
C          0.84810       -0.65340        1.29420
C          1.34430        0.27240        2.38610
C          0.39320       -2.00270        1.72170
O         -0.08390       -2.83380        0.98270
H          0.69140        1.98610        0.18250
H         -0.42110        1.60420       -1.13830
H         -1.01470        1.65960        0.52230
H         -0.63160       -0.78260       -0.32170
H          1.65180       -1.62210       -0.54210
H          2.56200        0.63350       -1.08880
H          2.04080        1.01090        1.98800
H          0.52120        0.80020        2.87970
H          1.87750       -0.29990        3.15330
H          0.53460       -2.21950        2.80470
