16
gdb 11520	4.89215	1.05173	0.95197	2.8012	67.21	-0.2647	0.0276	0.2923	1206.0091	0.127862	-383.672679	-383.664028	-383.663084	-383.706378	30.964
O         -0.29490        1.32850        0.04720
C          0.04080       -0.05370       -0.06510
C          0.90070       -0.32630       -1.31830
C          0.18170        0.08910       -2.57780
C          0.34000       -0.64260       -3.83930
O         -0.83250       -0.81110       -3.04120
C          0.69490       -0.55130        1.14680
C          1.27270       -0.92570        2.13240
H          0.47760        1.78600        0.39780
H         -0.91880       -0.56720       -0.19670
H          1.84630        0.22300       -1.22490
H          1.14090       -1.39340       -1.36550
H         -0.10820        1.13810       -2.62100
H          0.19160       -0.12790       -4.78760
H          1.00580       -1.50430       -3.87990
H          1.76100       -1.26660        3.01190
