20
gdb 11913	4.35281	1.42093	1.22049	1.8806	74.67	-0.2538	0.0766	0.3303	1056.6234	0.177612	-349.007639	-348.999781	-348.998837	-349.040119	30.409
C         -0.11890        1.53420        0.00190
C          0.07320        0.01970        0.00820
C          0.90040       -0.53210       -1.17190
C          1.25780       -1.95970       -0.72700
C          1.47290       -1.83160        0.78250
C          1.71270       -2.98530        1.65510
O          2.78480       -2.11170        1.29100
C          0.82410       -0.52290        1.24470
H          0.84820        2.04980        0.02940
H         -0.64820        1.86440       -0.89830
H         -0.69840        1.86800        0.86930
H         -0.91620       -0.45840       -0.02830
H          0.36170       -0.49560       -2.12320
H          1.81370        0.06600       -1.28830
H          0.41650       -2.63510       -0.92600
H          2.14260       -2.37650       -1.21410
H          1.41100       -2.94650        2.70190
H          1.76070       -3.98810        1.22880
H          1.62510        0.16780        1.53510
H          0.17510       -0.65130        2.11580
