20
gdb 11908	4.52612	1.44587	1.26286	1.4329	75.3	-0.2396	0.0933	0.3328	1038.8941	0.17757	-349.003232	-348.995224	-348.99428	-349.036071	30.457
C          0.02440        1.55850       -0.04520
C          0.14150        0.04480       -0.07570
C          0.87670       -0.55220       -1.28240
C          1.33120       -1.88870       -0.72020
C          0.70370       -3.18340       -1.17340
C          2.15210       -2.88300       -1.48680
C          1.56680       -1.60910        0.76500
O          0.91250       -0.37610        1.05460
H          1.01380        2.02080       -0.11830
H         -0.59180        1.91350       -0.87750
H         -0.43890        1.88760        0.88920
H         -0.86650       -0.40130       -0.01500
H          0.24210       -0.64810       -2.16750
H          1.73580        0.08020       -1.54130
H          0.49240       -3.93870       -0.42280
H         -0.01320       -3.15210       -1.98790
H          2.41730       -2.64750       -2.51250
H          2.91490       -3.43900       -0.95020
H          1.16870       -2.41330        1.40030
H          2.63370       -1.49200        0.99950
