15
gdb 20831	5.01928	1.37672	1.14267	3.4534	62.78	-0.2298	0.016	0.2458	1026.6453	0.12074	-396.021057	-396.013514	-396.012569	-396.05362	27.305
C         -0.20540        1.52480        0.06600
C          0.07750        0.01590        0.00540
C          0.80770       -0.48040        1.21100
N          1.97140       -0.03580        1.66970
C          2.17850       -0.81150        2.76740
O          3.26590       -0.68580        3.53990
N          1.24420       -1.70410        3.03660
N          0.36860       -1.46630        2.01400
H          0.72760        2.07990        0.18790
H         -0.69450        1.86050       -0.85270
H         -0.85640        1.76960        0.91050
H         -0.85770       -0.54510       -0.10350
H          0.68100       -0.20610       -0.88270
H          3.79760        0.01780        3.14920
H         -0.47370       -2.01270        1.94630
