17
gdb 20878	6.65564	1.03852	0.95704	2.8771	70.22	-0.2605	-0.0054	0.2551	1229.5144	0.142655	-363.868724	-363.860925	-363.859981	-363.901803	28.01
C         -0.05110        1.57160        0.14130
C         -0.08930        0.05050        0.30420
C         -1.36150       -0.57410       -0.29780
C         -1.41930       -2.06230       -0.13380
N         -1.32680       -2.84720       -1.18270
O         -1.39630       -4.15180       -0.69540
C         -1.52980       -4.10630        0.63660
C         -1.55210       -2.82220        1.06900
H          0.86140        1.99310        0.57340
H         -0.08270        1.85730       -0.91580
H         -0.90540        2.04550        0.63750
H          0.78720       -0.40010       -0.17590
H         -0.02370       -0.20980        1.36800
H         -2.24390       -0.12480        0.17560
H         -1.41930       -0.34470       -1.36640
H         -1.59890       -5.06100        1.13520
H         -1.65120       -2.46240        2.07950
