18
gdb 19518	3.54053	1.83493	1.71935	0.8756	72.61	-0.2174	0.0247	0.2421	866.1315	0.154624	-347.786203	-347.77888	-347.777935	-347.817719	28.025
C          0.11350        1.04420        0.37780
O         -0.16570        0.00640       -0.53980
C         -1.36560       -0.63870       -0.28590
C         -1.48980       -2.07210       -0.68360
C         -0.19210       -2.84560       -0.93590
C          0.49430       -2.85830        0.41270
C         -0.23730       -2.25960        1.35480
C         -1.50220       -1.69820        0.80680
H          1.06040        1.49700        0.07470
H         -0.67100        1.81620        0.36570
H          0.20810        0.65900        1.40260
H         -2.24640       -0.00890       -0.43180
H         -2.39210       -2.38370       -1.19660
H         -0.39690       -3.86090       -1.29890
H          0.42740       -2.35490       -1.69670
H          1.48080       -3.28370        0.55820
H          0.04690       -2.14710        2.39490
H         -2.40900       -1.70000        1.40270
