17
gdb 6113	2.82202	1.87819	1.49787	3.3092	64.14	-0.2428	0.0066	0.2494	916.7426	0.141002	-401.031639	-401.023037	-401.022093	-401.064332	31.547
C          0.19500        1.40340       -0.23760
C         -0.06340       -0.07010        0.02000
C         -1.53180       -0.44510       -0.05470
O          0.72440       -0.89870       -0.93090
C          1.54050       -1.37760        0.05720
O          2.51760       -2.04830       -0.06130
C          0.75060       -0.69900        1.19360
N          1.39270        0.16540        2.15490
H          1.26600        1.61970       -0.28080
H         -0.24780        1.70640       -1.19080
H         -0.24330        2.00620        0.56250
H         -1.95150       -0.17850       -1.02940
H         -1.66870       -1.52000        0.09430
H         -2.09590        0.08760        0.71760
H          0.14910       -1.43860        1.73010
H          1.72880       -0.37360        2.94500
H          2.20230        0.62690        1.75340
