18
gdb 15581	3.22579	1.77601	1.26115	1.0645	72.74	-0.253	0.0486	0.3016	977.3887	0.153844	-347.776323	-347.768206	-347.767261	-347.809322	30.326
C         -0.07100        1.60280       -0.11380
C          0.04910        0.08350       -0.01000
C          0.83440       -0.53930       -1.19360
O          1.61690       -1.59680       -0.66280
C          2.07850       -1.13340        0.58840
C          0.84100       -0.46080        1.24000
C          1.18450        0.51190        2.26290
C          1.49030        1.30530        3.11340
H          0.91360        2.08100       -0.11700
H         -0.58410        1.88070       -1.04090
H         -0.63710        2.01730        0.72420
H         -0.95620       -0.34620        0.02070
H          0.19140       -0.95510       -1.97340
H          1.48490        0.22470       -1.65160
H          2.45810       -1.98480        1.15690
H          2.88760       -0.39510        0.47020
H          0.23950       -1.25100        1.70190
H          1.75600        2.00390        3.86760
