19
gdb 11526	4.66116	1.05771	0.9192	3.2361	73.05	-0.2398	-0.0222	0.2176	1260.4403	0.163415	-365.037348	-365.028298	-365.027354	-365.0722	31.81
C         -0.00210        1.57300        0.11880
C         -0.01400        0.03980        0.01370
C          0.75430       -0.64870        1.16120
N          2.15560       -0.24540        1.18970
C          2.53990        0.76400        2.17400
C          2.91130       -0.66290        2.36670
C         -1.44530       -0.46190        0.03010
O         -1.93610       -1.19380       -0.78970
H          1.02240        1.94860        0.08560
H         -0.55600        2.02600       -0.70910
H         -0.46030        1.91220        1.05540
H          0.43200       -0.27550       -0.93420
H          0.24690       -0.44990        2.12480
H          0.72400       -1.73250        1.00000
H          3.27850        1.48940        1.84510
H          1.76340        1.16640        2.82280
H          2.38200       -1.21210        3.14410
H          3.92560       -1.00300        2.17930
H         -2.04520       -0.09390        0.89850
