21
gdb 13616	3.1962	1.3247	1.0483	0.8309	75.34	-0.2218	0.0745	0.2962	1184.6142	0.187022	-366.224763	-366.215124	-366.21418	-366.259001	35.014
C          0.36070        1.74460       -0.11500
C          0.02350        0.25130        0.00670
C          0.51910       -0.52820       -1.21520
O         -0.13140       -0.01360       -2.36820
C          0.62780       -0.32680        1.27520
C         -0.04760       -0.17960        2.59630
N          0.11100       -1.49730        1.99270
C         -1.09420       -2.17330        1.53690
H          1.44590        1.90160       -0.08920
H         -0.01560        2.14430       -1.05890
H         -0.07790        2.31430        0.70950
H         -1.06680        0.14660        0.03580
H          1.61440       -0.42170       -1.29350
H          0.30350       -1.59980       -1.08550
H          0.21720       -0.46910       -3.13960
H          1.71910       -0.30020        1.27310
H          0.52100        0.00870        3.50380
H         -1.04400        0.26400        2.58790
H         -1.88300       -1.50760        1.15310
H         -0.83770       -2.89070        0.75030
H         -1.51410       -2.73450        2.37810
