17
gdb 3971	3.55585	1.24737	1.05549	2.0226	68.73	-0.236	-0.0263	0.2096	1137.3816	0.138424	-400.98659	-400.976999	-400.976055	-401.021999	33.078
C         -0.96600        0.75910        0.02950
C          0.36190        0.03180        0.01370
O          1.14930        0.08080        0.92960
C          0.64230       -0.82330       -1.23160
C          0.15950       -2.23700       -0.98770
C          0.94810       -3.11490       -0.05750
N         -0.91620       -2.56570       -1.59710
O         -1.30320       -3.88480       -1.31740
H         -0.95240        1.55930       -0.72040
H         -1.77340        0.07540       -0.25240
H         -1.15120        1.18850        1.01460
H          0.12820       -0.41740       -2.10540
H          1.72350       -0.82440       -1.40030
H          1.46120       -2.50590        0.69020
H          0.30260       -3.84630        0.43020
H          1.71060       -3.66760       -0.62040
H         -2.11610       -3.96780       -1.82690
