16
gdb 6123	3.20036	1.68292	1.43001	1.9592	61.31	-0.2383	-0.0351	0.2032	921.1979	0.127321	-420.874551	-420.865748	-420.864804	-420.907651	31.7
C         -0.66150        1.51340        0.17550
C         -0.00020        0.16300       -0.01410
O         -0.93000       -0.91670        0.01640
C          0.94180       -0.08130       -1.22750
C          1.92800       -0.89370       -0.30450
O          3.31130       -0.78380       -0.42900
C          1.25010       -0.15940        0.85360
O          1.69250        0.29430        1.87370
H          0.06940        2.32470        0.11370
H         -1.42850        1.66910       -0.58880
H         -1.13600        1.57350        1.16170
H         -1.38630       -0.88990        0.86540
H          0.49420       -0.63320       -2.05380
H          1.39970        0.84510       -1.58140
H          1.64350       -1.95080       -0.33130
H          3.60670       -0.10270        0.18770
