8
gdb 3825	10.09678	2.0721	1.71926	4.1925	46.41	-0.3241	-0.0819	0.2422	627.7821	0.045022	-354.29246	-354.287433	-354.286489	-354.321434	17.121
N          0.03490       -1.12820       -0.00390
C          0.00250        0.02640        0.00280
C         -0.02390        1.45260        0.01090
N         -1.15570        2.11910        0.02950
O         -0.73650        3.43910        0.03110
C          0.60070        3.41910        0.01320
N          1.11300        2.23130       -1.10250
H          1.10990        4.37140        0.01160
