11
gdb 23679	3.94616	1.99133	1.32347	2.5468	54.52	-0.2693	-0.0392	0.2301	808.5883	0.074216	-438.759329	-438.753602	-438.752658	-438.78931	21.676
O          0.10690        1.31860        0.07870
C          0.06970       -0.01740        0.05370
N          0.08200       -0.61370       -1.13600
C          0.04370       -1.93620       -1.10500
F          0.05640       -2.52080       -2.28610
N         -0.00440       -2.74090       -0.06450
C         -0.01570       -2.11060        1.12120
C          0.02000       -0.73550        1.25310
H          0.13790        1.61450       -0.84290
H         -0.05520       -2.74970        1.99910
H          0.01070       -0.23440        2.21080
