16
gdb 11316	5.3084	1.22212	1.0404	3.4392	69.78	-0.2508	-0.0595	0.1914	1086.8755	0.130347	-383.763012	-383.755261	-383.754317	-383.795366	28.161
O         -0.05110        1.45850        0.01210
C          0.04220        0.04030       -0.02430
C         -1.37920       -0.56320       -0.05720
C         -1.29490       -1.79490       -0.99010
C         -0.05290       -1.51330       -1.80690
C          0.31540       -2.26540       -3.01090
O         -0.32900       -3.18800       -3.45870
C          0.67110       -0.51450       -1.28430
H          0.81710        1.81740        0.22040
H          0.60480       -0.31990        0.85390
H         -1.76080       -0.79640        0.93870
H         -2.03140        0.19900       -0.49460
H         -1.17340       -2.72810       -0.42640
H         -2.17990       -1.93050       -1.61770
H          1.25200       -1.92260       -3.50530
H          1.61240       -0.14830       -1.68350
