20
gdb 9875	4.77296	0.98041	0.91249	0.8431	81.29	-0.2539	0.0591	0.313	1324.977	0.175113	-311.830363	-311.821216	-311.820272	-311.864148	34.285
C          0.04440        1.58140        0.26620
C         -0.01730        0.07850        0.06040
C         -1.34360       -0.46660       -0.44650
C         -1.70110        0.00430       -1.87500
C         -2.93970       -0.58420       -2.36830
C         -3.96360       -1.08660       -2.74870
C          1.24320       -0.62420       -0.39120
C          0.75420       -0.78540        1.02960
H          1.01440        1.88160        0.67450
H         -0.09730        2.13140       -0.67090
H         -0.72930        1.91550        0.96790
H         -1.31520       -1.56150       -0.44260
H         -2.15230       -0.17530        0.23530
H         -1.78800        1.09730       -1.89770
H         -0.87680       -0.24910       -2.55400
H         -4.86660       -1.52270       -3.09720
H          1.14800       -1.47390       -1.05980
H          2.13210       -0.02600       -0.56180
H          1.31090       -0.29330        1.82030
H          0.32900       -1.74150        1.31650
