12
gdb 1217	8.77188	1.34906	1.17834	2.2526	53.03	-0.2699	0.0258	0.2957	927.336	0.08835	-360.517106	-360.509433	-360.508489	-360.549837	26.319
N         -0.10580        1.30250        0.12240
C          0.06830       -0.04640        0.02330
O          1.13050       -0.61760       -0.05730
O         -1.13940       -0.66960        0.06090
C         -1.05510       -2.10420        0.01580
C         -2.40240       -2.64970        0.01040
C         -3.50060       -3.13470        0.00460
H          0.69300        1.87430       -0.08950
H         -1.02320        1.68980       -0.01740
H         -0.50080       -2.40990       -0.87800
H         -0.48800       -2.46390        0.88140
H         -4.47270       -3.56230       -0.00020
