22
gdb 7458	2.97598	1.34793	1.16793	2.2745	74.45	-0.2551	0.0619	0.3169	1170.0843	0.197571	-387.349822	-387.339471	-387.338527	-387.384699	38.198
C         -0.00570        1.60190        0.06860
C          0.03930        0.06790        0.08580
C          0.75950       -0.43420        1.34630
C         -1.39010       -0.50650       -0.04620
O         -2.06570        0.04300       -1.17210
C         -1.44170       -2.04230       -0.14600
C         -2.87160       -2.57450       -0.08980
O         -0.81860       -2.34900       -1.40050
H          1.00580        2.02100        0.06750
H         -0.53830        1.96680       -0.81120
H         -0.52290        1.98650        0.95680
H          0.60260       -0.27410       -0.79240
H          0.95100       -1.51060        1.32250
H          1.72750        0.06540        1.45560
H          0.17580       -0.21470        2.24910
H         -1.97140       -0.19900        0.83370
H         -1.71430       -0.43740       -1.93370
H         -0.86020       -2.48480        0.67450
H         -3.48770       -2.08420       -0.84720
H         -2.89230       -3.65820       -0.25690
H         -3.31490       -2.38610        0.89330
H         -1.03100       -3.25810       -1.63050
