17
gdb 14672	6.1202	0.67135	0.64865	3.9436	75.81	-0.2459	0.0262	0.2721	1738.207	0.140795	-363.865181	-363.855568	-363.854624	-363.902866	31.893
C         -0.14470        1.37160       -0.56980
C         -0.07130        0.13820        0.34870
C         -1.36060       -0.52160        0.52770
C         -2.44130       -1.03710        0.65820
C         -3.73390       -1.68990        0.83470
N         -3.85460       -2.90540        0.03390
C         -4.95470       -3.17230       -0.71750
O         -5.95420       -2.48650       -0.76000
H          0.84370        1.82910       -0.67230
H         -0.50220        1.09410       -1.56500
H         -0.83040        2.11900       -0.16200
H          0.64870       -0.58220       -0.06040
H          0.32420        0.43210        1.32940
H         -3.89640       -1.91640        1.89770
H         -4.55800       -1.04030        0.52230
H         -3.05410       -3.51310       -0.03390
H         -4.83750       -4.10990       -1.29600
