15
gdb 7886	3.72305	1.73842	1.24625	3.5307	63.84	-0.2243	-0.0124	0.2119	944.7047	0.11861	-399.844132	-399.836391	-399.835446	-399.876056	28.635
C          0.03190        1.51170        0.02440
C         -0.06810        0.02600       -0.01910
C         -1.12410       -0.76700       -0.23850
C         -0.70320       -2.20300       -0.09590
O         -1.02060       -3.02500       -1.19960
C          0.82840       -2.08820        0.07390
O          1.61970       -3.00250        0.02570
N          1.09520       -0.74760        0.23080
H          0.76200        1.88040       -0.70680
H         -0.93510        1.96520       -0.20040
H          0.35760        1.85950        1.01190
H         -2.13700       -0.43550       -0.40950
H         -1.11130       -2.63120        0.83850
H         -0.37920       -3.74870       -1.18150
H          2.03480       -0.38200        0.20550
