16
gdb 17807	4.49521	1.71636	1.53973	3.2407	65.67	-0.2312	0.0434	0.2746	855.821	0.132104	-379.88696	-379.88007	-379.879126	-379.918119	26.814
N         -0.13400        1.31000        0.21260
C         -0.06220       -0.06570        0.08860
O          0.87570       -0.72500        0.49200
N         -1.15960       -0.61500       -0.58980
C         -2.59120       -0.47150       -0.07850
C         -2.92590       -1.68720       -0.98090
C         -1.60360       -2.01570       -0.23410
C         -2.26130       -1.46850        1.06850
H          0.74740        1.74540        0.43810
H         -0.69700        1.80760       -0.45960
H         -3.08740        0.49770       -0.02840
H         -3.80220       -2.27350       -0.70200
H         -2.84140       -1.52300       -2.05530
H         -0.93540       -2.86460       -0.35800
H         -1.57600       -1.11930        1.84130
H         -3.09600       -2.03790        1.48580
