18
gdb 12862	2.87262	2.29899	1.78739	2.4647	66.2	-0.2413	0.0715	0.3128	819.0138	0.154784	-384.933756	-384.92653	-384.925586	-384.965127	28.352
O          0.03830        1.41630       -0.36310
C          0.04080        0.05300       -0.00230
C          0.40300       -0.95830       -1.13490
C         -0.97800       -1.65210       -0.95450
C         -1.38180       -0.57470        0.09840
O         -1.57890       -1.02710        1.42210
C         -0.29300       -1.29840        1.97300
C          0.64070       -0.22550        1.38910
H          0.95290        1.70390       -0.45730
H          0.51320       -0.45230       -2.09650
H          1.28420       -1.58160       -0.95840
H         -1.60620       -1.67660       -1.84680
H         -0.93640       -2.65930       -0.53430
H         -2.21720        0.07010       -0.17840
H         -0.38070       -1.25910        3.06160
H          0.04670       -2.30950        1.69750
H          1.68710       -0.54380        1.36320
H          0.56490        0.69720        1.97180
