20
gdb 12016	4.26639	1.37327	1.23838	1.5876	75.59	-0.256	0.0871	0.3431	1065.7689	0.175724	-348.976504	-348.967892	-348.966948	-349.009233	32.51
C          0.17640        1.49630       -0.00950
C          0.03930       -0.01430        0.05270
C         -1.19920       -0.55170       -0.64020
C          1.29560       -0.85550       -0.01010
C          0.51830       -0.76490        1.28200
C          1.09980       -0.08220        2.48100
C          2.40160       -0.47350        3.04380
O          2.25860        0.73620        2.29630
H          1.08010        1.84510        0.49320
H          0.21610        1.83250       -1.05240
H         -0.68470        1.98890        0.45870
H         -1.20080       -0.28240       -1.70320
H         -1.25740       -1.64290       -0.57370
H         -2.11270       -0.14000       -0.19460
H          1.27190       -1.78900       -0.56250
H          2.24440       -0.33040       -0.03860
H         -0.07700       -1.63470        1.55420
H          0.37270        0.35020        3.17130
H          2.59900       -0.34220        4.10670
H          2.97550       -1.25680        2.55150
