19
gdb 2127	3.28125	2.79398	1.59124	0.1455	74.71	-0.2147	0.0398	0.2545	832.4164	0.171823	-273.817328	-273.809525	-273.808581	-273.8489	28.838
C         -0.01920        1.51920        0.11730
C          0.04440        0.02780        0.00190
C          0.02780       -0.72560       -1.10650
C         -0.05900       -0.28320       -2.53420
C          0.05100       -2.20450       -0.77280
C          0.42650       -2.23880        0.72660
C          0.08140       -0.82700        1.25370
H          0.85440        1.91070        0.65500
H         -0.06480        2.01750       -0.85420
H         -0.89990        1.83120        0.69480
H         -0.09150        0.80400       -2.63930
H          0.79790       -0.65110       -3.11370
H         -0.95550       -0.69300       -3.01850
H         -0.93690       -2.65250       -0.95950
H          0.75740       -2.76610       -1.39710
H         -0.08040       -3.03630        1.27630
H          1.50270       -2.41190        0.82810
H          0.80810       -0.46310        1.99090
H         -0.89630       -0.80450        1.75910
