20
gdb 18163	3.29993	1.56924	1.37265	1.5292	74.57	-0.2309	0.0769	0.3078	1022.1971	0.176616	-348.966472	-348.958178	-348.957234	-348.999122	31.391
C          0.46090        1.32780       -0.14370
C         -0.57640        0.60670        0.72470
C          0.08540       -0.26550        1.77780
O         -0.83200       -0.92660        2.70190
C         -0.09390       -2.14760        2.57710
C         -0.22890       -2.72790        1.20690
C         -1.50530       -2.67930        0.39430
C          0.76660       -1.59780        1.45620
H          1.09120        0.61310       -0.68370
H         -0.02480        1.96840       -0.88520
H          1.11910        1.96040        0.46230
H         -1.20680        1.34050        1.24290
H         -1.23920        0.00850        0.09530
H          0.77360        0.35420        2.37250
H          0.14180       -2.68530        3.48900
H          0.31670       -3.66720        1.12110
H         -2.15910       -1.88080        0.74950
H         -1.30780       -2.52350       -0.67170
H         -2.04980       -3.62430        0.49630
H          1.82630       -1.72010        1.27410
