15
gdb 15477	2.84136	2.06593	1.45358	3.8538	66.85	-0.2392	0.02	0.2592	876.7411	0.119882	-362.674064	-362.666629	-362.665685	-362.705932	27.633
O         -0.00760        0.03690       -0.64420
C          0.04250        1.18860       -0.28550
N         -1.01090        1.98670        0.05980
C         -0.65930        3.31630        0.52670
C          0.75640        3.50080       -0.05720
C          1.32270        2.06100       -0.11570
C          2.02310        1.67350        1.10210
C          2.58280        1.37520        2.12320
H         -1.93160        1.58800        0.15420
H         -1.36100        4.06790        0.15300
H         -0.65170        3.37320        1.62370
H          0.68440        3.89900       -1.07320
H          1.37190        4.17590        0.53780
H          1.97020        1.90060       -0.98200
H          3.08640        1.09480        3.01500
