17
gdb 14248	3.46284	1.84166	1.7232	3.773	67.78	-0.2382	-0.0005	0.2377	847.3476	0.142935	-363.855822	-363.848651	-363.847707	-363.887306	27.325
C         -0.00180        1.58270       -0.07020
C          0.01290        0.06150        0.01030
C          1.05380       -0.67230       -0.89870
N          1.75700       -1.19720        0.31760
C          0.71610       -0.61370        1.23710
C          1.82400        0.11740        2.02870
C          2.75150       -0.35100        0.88170
O          3.84270       -0.06150        0.48630
H          1.00510        2.00620        0.00280
H         -0.42430        1.91130       -1.02550
H         -0.60980        2.01640        0.73120
H         -1.00230       -0.32180       -0.12360
H          0.64460       -1.47940       -1.51090
H          1.69360       -0.03900       -1.52010
H          0.10610       -1.32640        1.79540
H          1.75820        1.20220        2.12880
H          2.04010       -0.31700        3.00810
