18
gdb 9802	2.98513	1.63726	1.29666	2.4459	67.94	-0.2457	-0.0243	0.2215	1001.0485	0.150544	-384.93255	-384.923504	-384.922559	-384.966622	32.227
C         -0.05410        1.54340        0.39820
C         -0.04150        0.05830       -0.02510
C          0.85390       -0.68850        0.94970
O          1.93670       -1.13740        0.67110
C         -1.45690       -0.52480       -0.07490
C         -2.38790        0.07160       -1.10910
C         -1.71470       -1.89210        0.40500
O         -2.05530       -0.75820        1.21060
H          0.96520        1.93530        0.45720
H         -0.60450        2.15400       -0.32170
H         -0.52820        1.66030        1.37760
H          0.41620       -0.03930       -1.01580
H          0.44430       -0.76000        1.98100
H         -1.97550       -0.04930       -2.11640
H         -3.36130       -0.42310       -1.06960
H         -2.54690        1.13940       -0.93400
H         -2.56060       -2.45000        0.00600
H         -0.90010       -2.50920        0.78280
