13
gdb 15483	3.6773	1.80757	1.22116	3.5818	63.96	-0.2606	-0.0814	0.1792	908.7793	0.095932	-398.6304	-398.623555	-398.622611	-398.661746	24.55
N          0.25400        1.31000       -0.50250
C          0.12740        0.08250       -0.22800
O          1.15150       -0.82940       -0.13480
C          0.62100       -2.11770        0.19270
C         -0.85680       -1.91250        0.29520
C         -1.13600       -0.62650        0.04840
C         -2.46760        0.01850        0.04260
O         -3.49340       -0.57970        0.27180
H          1.23250        1.55740       -0.65220
H          0.89600       -2.83500       -0.59240
H          1.06690       -2.46650        1.13390
H         -1.56960       -2.69100        0.53200
H         -2.45300        1.10000       -0.18970
