16
gdb 6519	3.08784	1.80955	1.41536	1.9582	68.4	-0.2376	0.0373	0.2749	920.4401	0.12607	-383.682917	-383.673914	-383.67297	-383.715538	33.893
C         -0.04710        1.55460        0.06820
C         -0.00550        0.04470        0.01830
O         -1.17410       -0.55480       -0.46600
C          1.29570       -0.68000       -0.24500
C          0.65150       -0.72010        1.14600
O          1.22320        0.08570        2.14340
C          0.08400       -1.95660        1.61420
C         -0.33200       -2.99330        2.05940
H          0.84000        1.96100        0.55530
H         -0.10600        1.96290       -0.94790
H         -0.93120        1.88500        0.62110
H         -1.20950       -0.40050       -1.41670
H          1.25380       -1.58880       -0.83410
H          2.20380       -0.09260       -0.32800
H          1.92030       -0.42900        2.56520
H         -0.72740       -3.90070        2.44360
