18
gdb 8958	4.36316	1.06506	0.89774	0.0012	60.47	-0.2583	0.0546	0.3129	1246.9468	0.152196	-459.195407	-459.186015	-459.18507	-459.229536	34.069
O          0.10910        1.33600       -0.39370
C          0.07400       -0.04820       -0.04060
C         -1.37500       -0.53830        0.00060
O         -2.03790       -0.16830       -1.19500
C         -1.47160       -2.05430        0.14220
O         -0.80840       -2.42440        1.33770
C         -2.92060       -2.54430        0.18380
O         -2.95560       -3.92830        0.53780
H         -0.17010        1.84410        0.37550
H          0.61420       -0.56860       -0.83850
H          0.57960       -0.24660        0.91030
H         -1.87190       -0.08360        0.87820
H         -1.66910        0.69340       -1.43330
H         -0.97480       -2.50900       -0.73540
H         -1.17700       -3.28610        1.57590
H         -3.46080       -2.02340        0.98130
H         -3.42620       -2.34660       -0.76720
H         -2.67630       -4.43700       -0.23110
