14
gdb 2632	7.68126	1.21518	1.12169	3.6158	60.58	-0.2544	0.0225	0.2769	1006.1753	0.112152	-324.569009	-324.561059	-324.560115	-324.602	27.132
O          0.47110        0.88700       -1.47360
C          0.22350        1.50580       -0.46010
N          1.09200        1.67570        0.57190
C          2.43820        1.12930        0.54650
C          3.41500        1.99100       -0.28720
C          4.76880        1.45560       -0.26260
C          5.87400        0.98580       -0.21280
H         -0.75280        1.99410       -0.26810
H          0.80720        2.24930        1.34900
H          2.79820        1.04230        1.57440
H          2.39250        0.12660        0.11520
H          3.03960        2.03080       -1.31560
H          3.41020        3.01920        0.09550
H          6.85500        0.58070       -0.18590
