18
gdb 14354	4.22065	2.17507	1.89546	0.2096	76.92	-0.234	0.015	0.249	774.2691	0.15695	-310.599969	-310.594193	-310.593249	-310.629334	25.164
C         -0.06880        1.55000        0.10620
C          1.45170        1.28430        0.05360
C          1.19210        0.09110        1.05600
C          0.08910       -0.01060       -0.04050
C         -0.91780       -0.87140       -0.73480
C         -0.75110       -0.69550       -2.05560
C          0.41170        0.24850       -2.41210
C          1.19480        0.23580       -1.08540
H         -0.47340        1.90750        1.05690
H         -0.51630        2.08390       -0.73400
H          2.25430        2.02000        0.12840
H          1.94020       -0.70620        1.07400
H          0.87880        0.37470        2.06460
H         -1.70900       -1.45010       -0.27320
H         -1.39500       -1.12120       -2.81900
H          1.00200       -0.11410       -3.25960
H          0.02030        1.23100       -2.70410
H          1.94710       -0.56050       -1.11250
