15
gdb 1535	8.90844	1.27073	1.13592	2.6142	55.18	-0.2634	0.0163	0.2797	1030.2202	0.122535	-382.804255	-382.795769	-382.794825	-382.837895	27.427
C          0.03100        1.40520       -0.08110
O         -0.00780       -0.00020        0.00840
C          0.61310       -0.62340       -1.07430
C          0.53100       -2.13200       -0.90390
O          0.01920       -2.72060        0.00730
O          1.13430       -2.72430       -1.95620
C          1.13450       -4.15730       -1.93190
H          1.06460        1.78580       -0.10020
H         -0.48640        1.77250       -0.98160
H         -0.47500        1.79810        0.80330
H          0.14040       -0.35790       -2.03560
H          1.67670       -0.34290       -1.16320
H          1.65400       -4.46990       -2.83770
H          1.65470       -4.52780       -1.04500
H          0.11190       -4.54290       -1.92470
