13
gdb 4754	6.95919	1.31814	1.11606	7.8544	67.84	-0.2485	-0.0188	0.2297	996.7673	0.097646	-357.697006	-357.689938	-357.688994	-357.728852	24.716
C          0.00770        1.46370        0.00490
N         -0.00540        0.01140        0.01830
C         -0.11950       -0.81670       -1.06610
N         -0.09990       -2.08310       -0.73670
C          0.03420       -2.08560        0.63720
C          0.09400       -0.79520        1.11830
C          0.09720       -3.27970        1.40370
N          0.15090       -4.23740        2.05190
H          0.94650        1.84570        0.41510
H         -0.08940        1.80650       -1.02630
H         -0.82650        1.86330        0.58800
H         -0.21350       -0.42560       -2.06860
H          0.19530       -0.40350        2.11650
