17
gdb 13170	3.55041	1.45125	1.09763	3.3287	67.93	-0.2595	0.0291	0.2886	1059.6444	0.141997	-363.856453	-363.848098	-363.847153	-363.890335	29.089
C         -0.14620        1.50100       -0.00060
C          0.03370       -0.02910       -0.01460
C          0.70320       -0.46100       -1.24740
N          1.24710       -0.80280       -2.20840
C          0.81310       -0.53560        1.20940
C          0.04160       -0.52420        2.54940
O          0.07240       -1.96030        2.63340
C          0.85040       -2.06550        1.42270
H          0.82390        2.00510       -0.02650
H         -0.72880        1.83630       -0.86170
H         -0.67060        1.80530        0.90960
H         -0.95740       -0.50250       -0.00740
H          1.79170       -0.05180        1.24470
H          0.56390       -0.04930        3.38890
H         -0.98480       -0.13520        2.50680
H          0.34490       -2.66500        0.65540
H          1.84380       -2.49040        1.60700
