18
gdb 15674	2.91649	1.81333	1.20477	2.7884	70.16	-0.231	0.0165	0.2476	1012.1442	0.153529	-384.945454	-384.93717	-384.936226	-384.978372	30.189
C         -0.16920        1.52860       -0.06490
C         -0.03590        0.04120        0.00810
C          0.07600       -0.83500       -0.98740
C          0.16260       -2.23460       -0.45390
O          0.07920       -2.09230        0.96530
C         -0.01300       -0.70500        1.32060
C          1.17650       -0.37570        2.23120
O          1.22360       -1.25960        3.33070
H          0.66520        2.03310        0.43730
H         -0.19850        1.87550       -1.10070
H         -1.08530        1.86780        0.43480
H          0.09770       -0.60400       -2.04560
H         -0.66040       -2.87510       -0.80740
H          1.10300       -2.73830       -0.72730
H         -0.93930       -0.55490        1.89910
H          2.10220       -0.41810        1.63310
H          1.07980        0.63810        2.63550
H          1.13060       -2.14300        2.95210
