13
gdb 1426	7.64386	1.31224	1.17848	1.7229	52.54	-0.2569	-0.0521	0.2048	928.2898	0.0986	-381.602419	-381.594748	-381.593803	-381.635231	25.572
O         -0.20300        1.41320        0.11600
C          0.02380        0.03850       -0.01780
C          0.84170       -0.27110       -1.29390
C          0.11540        0.20180       -2.53970
O         -0.13910       -0.50910       -3.47710
C          0.75180       -0.50000        1.19970
O          1.08060        0.22590        2.10560
H          0.18700        1.66180        0.96990
H         -0.93540       -0.50580       -0.08190
H          1.79430        0.27060       -1.22350
H          1.04150       -1.34230       -1.39260
H         -0.17360        1.27280       -2.52300
H          0.96910       -1.58680        1.20740
