16
gdb 12746	3.31702	1.79809	1.49868	2.0096	70.5	-0.2351	0.0202	0.2553	898.2057	0.12854	-346.524936	-346.517223	-346.516279	-346.556674	29.294
C         -0.04130        1.55310        0.00310
C          0.02030        0.05640        0.04520
C         -0.85980       -0.82910        0.90660
C          0.63060       -0.93850        1.00380
O          1.14150       -1.77350       -0.04090
C          0.66220       -0.82470       -1.04390
C         -0.17960       -1.41080       -2.07230
C         -0.88290       -1.87740       -2.92840
H          0.91570        1.98640       -0.30910
H         -0.81090        1.89790       -0.69750
H         -0.28780        1.96150        0.98810
H         -1.34610       -0.30400        1.72380
H         -1.43000       -1.64630        0.47420
H          1.22820       -0.83080        1.90150
H          1.52590       -0.32300       -1.49950
H         -1.50160       -2.29450       -3.68430
