15
gdb 12650	3.328	1.97885	1.29727	5.7011	62.21	-0.2332	-0.0619	0.1713	906.8194	0.119496	-399.857415	-399.849844	-399.848899	-399.889609	27.359
C         -0.22390        1.55310        0.00640
C          0.10390        0.06260       -0.01620
C          0.92640       -0.43620       -1.22630
N          1.79760       -1.46100       -0.66380
C          1.91420       -1.47700        0.69670
O          2.63980       -2.16830        1.37130
C          0.91180       -0.40770        1.19050
O          0.81380       -0.02640        2.32390
H          0.68720        2.15630       -0.06050
H         -0.87790        1.82890       -0.82600
H         -0.72470        1.80760        0.94370
H         -0.83050       -0.51550        0.02320
H          0.29530       -0.85150       -2.01810
H          1.51010        0.38570       -1.66270
H          2.40420       -2.03060       -1.23350
