17
gdb 16056	3.54757	1.68039	1.43367	3.1065	70.19	-0.2403	-0.0307	0.2095	925.8175	0.141702	-363.829868	-363.822179	-363.821235	-363.86177	28.626
C         -0.05170        1.58800       -0.07360
C          0.04030        0.08780        0.09050
N          1.19690       -0.73960       -0.25440
C          2.44640        0.00910        0.15320
C          2.01840        0.10000        1.63710
C          0.73010       -0.60010        1.22230
C          0.12910       -1.74900        1.92260
O          0.39360       -2.06150        3.05910
H          0.79070        2.12590        0.36420
H         -0.10730        1.84840       -1.13600
H         -0.96460        1.95260        0.40740
H         -0.86620       -0.42510       -0.23050
H          3.31040       -0.63470       -0.01620
H          2.59270        0.94660       -0.39040
H          2.61950       -0.52210        2.30070
H          1.91490        1.09210        2.08410
H         -0.59900       -2.32600        1.30860
