13
gdb 1225	7.79293	1.27363	1.17628	2.8437	52.07	-0.2651	-0.0361	0.229	965.2519	0.098284	-381.63248	-381.624442	-381.623498	-381.666952	25.619
C         -0.11490        1.43240        0.11740
C         -0.01740       -0.06910        0.19710
O          0.81020       -0.69230        0.80720
O         -1.01120       -0.64310       -0.53630
C         -1.05500       -2.07070       -0.57030
C         -2.35680       -2.55540        0.04140
O         -2.82600       -3.63970       -0.17460
H          0.65380        1.88010        0.74560
H          0.01510        1.75680       -0.91910
H         -1.10620        1.76310        0.43890
H         -0.98370       -2.40360       -1.60910
H         -0.21280       -2.47920       -0.00030
H         -2.83680       -1.81930        0.72500
