14
gdb 15763	3.10964	1.37921	1.02651	3.1803	68.55	-0.2588	-0.0581	0.2007	1128.0191	0.104443	-382.503023	-382.494416	-382.493472	-382.538312	28.416
C         -0.02750        0.84400       -1.13970
C          0.01200       -0.33300       -0.29060
C          0.04420       -1.30820        0.41970
C          0.04360       -2.46300        1.28960
O         -0.83220       -2.67910        2.10190
C          1.19520       -3.41940        1.14020
C          1.67940       -3.81550       -0.19850
O          2.41830       -2.91280        0.60820
H          0.96860        1.09530       -1.51800
H         -0.68340        0.67550       -2.00110
H         -0.41570        1.70880       -0.59140
H          1.28440       -4.12130        1.96700
H          2.10990       -4.80800       -0.32090
H          1.21680       -3.38050       -1.08230
