16
gdb 8666	2.31606	1.76452	1.55032	3.3863	61.98	-0.2547	-0.0659	0.1888	938.4677	0.12536	-420.888171	-420.878643	-420.877699	-420.922865	32.495
C          0.45930       -0.83710        1.28110
C          0.01670       -0.09520        0.01820
C          0.87370       -0.40800       -1.21980
O          2.26850       -0.20260       -1.04290
C          0.74770       -1.89100       -1.60950
O         -0.29370       -2.48550       -1.64960
C          0.39760        0.42470       -2.42690
O         -0.73310        0.78290       -2.60770
H          0.34290       -1.91910        1.16870
H          1.50830       -0.63470        1.51570
H         -0.14650       -0.52510        2.13620
H         -1.01440       -0.34390       -0.24580
H          0.03990        0.98960        0.18380
H          2.40530        0.67600       -0.67290
H          1.72470       -2.35910       -1.85490
H          1.23020        0.68170       -3.11970
