16
gdb 2581	3.1875	2.6544	1.82658	2.0775	56.38	-0.2529	0.0659	0.3188	737.124	0.137467	-362.875945	-362.868549	-362.867605	-362.907376	27.24
O          0.26750        1.22930        0.29000
C          0.09240       -0.09860       -0.17050
C         -1.36110       -0.53420       -0.13950
C         -2.27120        0.19070       -1.11030
O         -2.37290        1.57450       -0.76590
C         -1.71120       -1.89450        0.33600
N         -2.00210       -0.72120        1.17950
H         -0.41600        1.75940       -0.14480
H          0.48620       -0.22590       -1.19350
H          0.69020       -0.74110        0.48730
H         -1.86580        0.16160       -2.12700
H         -3.26280       -0.28040       -1.12140
H         -2.74060        1.59240        0.12720
H         -2.58650       -2.40260       -0.06040
H         -0.89970       -2.55720        0.62550
H         -1.30090       -0.63080        1.91130
