24
gdb 6794	5.86789	0.62126	0.58446	1.3816	82.74	-0.2614	0.081	0.3424	1961.3632	0.2214	-351.414727	-351.403828	-351.402884	-351.451348	38.513
C         -0.06500        1.56020       -0.01560
C          0.02340        0.02890        0.04410
C          0.88260       -0.41390        1.23720
C         -1.38620       -0.58990        0.06920
C         -1.43520       -2.11630       -0.06940
C         -2.86600       -2.65950       -0.13770
C         -2.92330       -4.17540       -0.27010
O         -4.28890       -4.56200       -0.32500
H          0.92960        2.01480       -0.07270
H         -0.63780        1.89360       -0.88740
H         -0.56000        1.95850        0.87850
H          0.52080       -0.31430       -0.87540
H          0.41670       -0.11560        2.18460
H          1.02550       -1.49800        1.26310
H          1.87490        0.04790        1.19800
H         -1.89000       -0.29320        1.00080
H         -1.97590       -0.14700       -0.74490
H         -0.88680       -2.41470       -0.97420
H         -0.91200       -2.58700        0.77260
H         -3.42350       -2.36920        0.76160
H         -3.39860       -2.21710       -0.98870
H         -2.38380       -4.48970       -1.17920
H         -2.41130       -4.64320        0.58740
H         -4.32710       -5.51920       -0.40630
