20
gdb 15990	3.27016	1.66056	1.26482	1.0322	76.21	-0.2426	0.0841	0.3267	1037.5667	0.176459	-348.969789	-348.961409	-348.960465	-349.002742	31.306
C          0.15840        1.49310       -0.23460
O         -0.32290        0.21870       -0.59620
C          0.65150       -0.60020       -1.18450
C          1.69540       -1.31450       -0.27170
C          1.42960       -2.62880       -1.06600
C          0.15430       -1.97850       -1.61740
C         -1.24790       -2.46120       -1.38980
C         -0.69810       -2.34060       -2.79350
H          0.95240        1.43410        0.52490
H          0.55620        2.03920       -1.10480
H         -0.68250        2.05410        0.18040
H          1.14670       -0.06200       -2.01060
H          2.71640       -0.92690       -0.26000
H          1.31680       -1.37780        0.75180
H          2.18320       -2.80930       -1.83920
H          1.30640       -3.54290       -0.47990
H         -1.38300       -3.45590       -0.97620
H         -1.97580       -1.72790       -1.06210
H         -1.07180       -1.53560       -3.41910
H         -0.46220       -3.25290       -3.33260
