18
gdb 9061	4.44926	0.87233	0.76894	2.3849	75.27	-0.2493	-0.0243	0.225	1442.6695	0.150147	-347.784625	-347.774918	-347.773974	-347.820268	33.566
C         -0.10440        1.56030       -0.09590
C         -0.00690        0.02690       -0.01190
C          0.76050       -0.46700        1.23360
C          2.25160       -0.06730        1.24090
C          2.96380       -0.61130        2.39050
C          3.52560       -1.07160        3.34810
C         -1.40750       -0.55580        0.02970
O         -1.85750       -1.34270       -0.76140
H          0.88530        2.02000       -0.15730
H         -0.66640        1.86910       -0.98250
H         -0.61050        1.97170        0.78510
H          0.47130       -0.36870       -0.91520
H          0.28260       -0.08160        2.14260
H          0.69770       -1.55930        1.28660
H          2.72590       -0.41890        0.31530
H          2.35170        1.02430        1.24050
H          4.03410       -1.47400        4.18890
H         -2.02220       -0.19040        0.88830
