10
gdb 21381	5.69018	2.39912	1.68759	1.0849	52.81	-0.2655	-0.0463	0.2193	660.826	0.064901	-409.628674	-409.623779	-409.622835	-409.657618	18.611
N          0.04240        1.25220        0.00880
N          1.26060        1.83930        0.00020
C          2.01590        0.75910       -0.01300
O          3.33190        0.43820       -0.02750
C          3.27460       -0.95210       -0.03460
N          2.10840       -1.50820       -0.02630
C          1.26070       -0.40660       -0.01200
N         -0.03220       -0.08560        0.00220
H         -0.79200        1.81590        0.02000
H          4.23650       -1.44100       -0.04660
