22
gdb 19965	3.61372	1.41204	1.15418	0.0637	82.14	-0.2601	0.0847	0.3447	1131.8606	0.201008	-313.050303	-313.041881	-313.040937	-313.083252	32.422
C         -0.20920        1.50790       -0.01060
C          0.00280       -0.00310        0.03550
C          1.12930       -0.51180       -0.91320
C          2.09300       -0.57880        0.30110
C          0.85580       -0.53300        1.24350
C          0.93270        0.24630        2.52730
C         -0.06690        0.00310        3.63350
C          1.36660       -0.43270        3.80470
H          0.73650        2.05640        0.06510
H         -0.67990        1.79960       -0.95590
H         -0.85590        1.84700        0.80530
H         -0.96410       -0.50240       -0.08390
H          0.91100       -1.50320       -1.32000
H          1.40910        0.14600       -1.74100
H          2.75550       -1.44430        0.38050
H          2.70270        0.32550        0.39270
H          0.53790       -1.55760        1.47270
H          1.26420        1.27530        2.41420
H         -0.42040        0.85170        4.20910
H         -0.81500       -0.76750        3.47690
H          1.58200       -1.49560        3.76450
H          1.99350        0.11930        4.49640
