18
gdb 18642	2.71743	2.32347	1.77238	1.8676	67.13	-0.2337	0.0656	0.2993	831.562	0.1542	-384.918346	-384.910621	-384.909677	-384.950273	29.227
C         -0.01710        1.59020       -0.20440
C          0.05710        0.09480        0.00710
C          1.32660       -0.68860       -0.18040
O          2.51470        0.06670       -0.18850
C          2.95690        0.22940        1.15720
C          1.71410        0.11860        2.07560
O          1.19260        1.37060        2.50570
C          0.71190       -0.61200        1.19350
H          0.94650        2.06770       -0.02910
H         -0.31960        1.80050       -1.23650
H         -0.74720        2.04940        0.46730
H         -0.83250       -0.43770       -0.32470
H          1.37000       -1.59540       -0.77710
H          3.68570       -0.55690        1.40930
H          3.44850        1.20440        1.24460
H          1.95360       -0.50160        2.95160
H          1.83630        1.77380        3.09680
H          0.18450       -1.45360        1.62560
