12
gdb 2749	4.64099	2.4832	1.65164	5.6401	53.59	-0.2588	-0.0391	0.2196	700.9928	0.090065	-360.552974	-360.546551	-360.545606	-360.583651	22.012
O         -0.15010       -0.02200        0.00130
C         -0.04180        1.17540        0.01010
N          1.15490        1.86890        0.00280
C          1.43000        3.32090        0.01110
C          2.94550        2.98120       -0.00850
C          2.52370        1.49950       -0.01540
O          3.07010        0.44160       -0.02990
H         -0.90440        1.87310        0.02450
H          1.05710        3.83960       -0.87530
H          1.07710        3.82560        0.91370
H          3.48750        3.29070       -0.90340
H          3.50760        3.27680        0.87870
