6
gdb 174	10.78306	10.41182	5.2971	2.8915	28.58	-0.331	-0.0643	0.2667	239.8863	0.033398	-278.075775	-278.072348	-278.071404	-278.101859	10.82
O         -0.02490        1.32400        0.00950
C          1.25400        1.64710       -0.00110
N          2.05600        0.62810       -0.01420
N          1.19470       -0.45340       -0.01180
N         -0.00440       -0.11030        0.00140
H          1.52560        2.69090        0.00200
