16
gdb 13367	5.76743	1.02557	0.96016	1.8891	69.3	-0.2488	0.0339	0.2827	1234.1154	0.130101	-383.7089	-383.70053	-383.699586	-383.743951	28.164
C         -0.04190        1.49330       -0.07670
C          0.01340        0.04030       -0.01620
C          0.05390       -1.16240        0.02650
C          0.12000       -2.61780        0.08400
C          0.57460       -3.15930        1.47510
O         -0.28320       -4.26280        1.70130
C         -1.49440       -3.88200        1.10060
O         -1.16060       -3.24090       -0.11160
H          0.56630        1.88080       -0.90120
H         -1.06970        1.83940       -0.23160
H          0.32450        1.94640        0.85090
H          0.77850       -2.99010       -0.70980
H          1.60820       -3.50940        1.48180
H          0.44320       -2.38540        2.24360
H         -2.08610       -4.77580        0.88550
H         -2.05820       -3.19580        1.75890
