15
gdb 19964	3.65263	1.86622	1.46638	2.6441	60.76	-0.2406	-0.0012	0.2394	856.9111	0.119424	-399.782391	-399.775315	-399.774371	-399.814251	25.6
O          0.21340       -0.00140       -0.00750
C          0.11950        1.17850       -0.13300
O         -1.00190        1.90590       -0.43690
C         -0.29670        3.18070       -0.27190
C          1.02550        2.43040       -0.01470
N          1.73790        2.73580        1.20130
C          1.28760        2.12600        2.45460
C          2.54380        1.66900        1.79790
H         -0.36140        3.78130       -1.18020
H         -0.68250        3.72780        0.59010
H          1.72380        2.48970       -0.85530
H          1.32490        2.77900        3.32110
H          0.44410        1.43980        2.43200
H          2.51730        0.68930        1.32840
H          3.51120        1.98030        2.18090
