15
gdb 13434	4.05353	1.22538	1.1126	6.0849	61.63	-0.2568	0.0319	0.2887	1059.4118	0.11797	-399.782156	-399.773973	-399.773029	-399.815615	29.409
O         -0.05660        1.38150       -0.06770
C         -0.03560       -0.00970       -0.04980
C         -0.42350       -0.67670        1.24910
O         -0.82850        0.19600        2.27580
C         -1.35420       -0.76650        0.06620
C         -2.66620        0.00590        0.06670
C         -3.42630       -0.21840       -1.16180
N         -4.02660       -0.41110       -2.13010
H         -0.24310        1.66220        0.83970
H          0.75360       -0.42510       -0.66840
H          0.07770       -1.58140        1.58460
H         -0.08890        0.30840        2.88290
H         -1.39670       -1.73910       -0.41270
H         -3.29200       -0.27670        0.92030
H         -2.46310        1.07760        0.15620
