16
gdb 14854	2.99927	1.63537	1.16261	2.2127	66.44	-0.252	0.0189	0.271	1012.0212	0.128782	-383.670615	-383.662186	-383.661241	-383.704175	29.914
O         -0.10800        1.44650       -0.15530
C          0.04540        0.03500       -0.11010
C         -1.34340       -0.54770        0.06460
C         -2.25140       -0.46610       -1.17690
O         -2.20300       -1.90010       -1.36630
C         -1.48630       -2.08870       -0.12200
C         -0.28540       -2.89860       -0.25340
C          0.70400       -3.57570       -0.34420
H          0.75250        1.83740       -0.33200
H          0.49700       -0.35270       -1.03560
H          0.69080       -0.27790        0.72500
H         -1.78600       -0.16800        0.98730
H         -3.27320       -0.11590       -0.98860
H         -1.83640        0.07720       -2.03250
H         -2.14280       -2.54190        0.63400
H          1.57500       -4.17750       -0.43070
