13
gdb 21531	3.39242	2.07923	1.2994	2.4039	57.1	-0.2087	0.0277	0.2364	862.8741	0.096757	-431.90748	-431.900059	-431.899115	-431.938728	27.876
N          0.09020        1.36960        0.16330
C         -0.02690        0.01160        0.04550
C         -1.13850       -0.78860        0.00740
N         -2.48220       -0.33590       -0.00350
C         -0.56510       -2.09020       -0.04210
O         -1.27660       -3.22890       -0.09990
N          0.74550       -2.09500       -0.04490
O          1.09470       -0.71380        0.02270
H          0.91730        1.76750       -0.25820
H         -0.76510        1.85170       -0.07810
H         -2.96760       -0.57390        0.85660
H         -3.00820       -0.75980       -0.76140
H         -0.64800       -3.96210       -0.14300
