16
gdb 16863	4.20167	1.82672	1.38082	4.1142	64.24	-0.234	0.0353	0.2694	871.8411	0.133801	-379.936737	-379.929954	-379.92901	-379.968134	25.979
O          0.01710       -0.05400        0.22530
C         -0.01730        1.14940        0.04760
C         -1.32900        1.92160       -0.09450
C         -1.23100        3.15410       -0.98040
N         -1.13330        4.45610       -0.29600
C          0.04960        3.90430       -0.97740
C          1.15050        3.36750       -0.07350
N          1.11670        1.90910       -0.03630
H         -2.07340        1.21200       -0.45970
H         -1.64000        2.23130        0.91040
H         -1.78700        3.11640       -1.91310
H         -1.55580        5.18480       -0.86540
H          0.37320        4.37230       -1.90250
H          2.13380        3.66950       -0.44510
H          1.02780        3.80200        0.92760
H          1.97060        1.40680        0.15480
