18
gdb 16695	4.30392	1.63507	1.50801	1.8888	72.89	-0.2242	0.0114	0.2356	930.3778	0.153587	-347.765812	-347.758403	-347.757459	-347.797044	28.937
C         -0.13720        1.51030       -0.00290
C         -0.01350       -0.00460       -0.00980
C          1.27460       -0.60580       -0.67620
O          2.00990       -0.22890        0.53920
C          0.76670       -0.64920        1.18960
C          0.70870       -2.15040        0.83150
C          0.33810       -3.26240        1.74760
C          1.06200       -2.10990       -0.45820
H          0.81240        1.97480        0.27240
H         -0.43270        1.88060       -0.99090
H         -0.90360        1.83500        0.70980
H         -0.95440       -0.49230       -0.28040
H          1.70970       -0.23360       -1.60350
H          0.66330       -0.32780        2.22700
H         -0.67030       -3.12390        2.15860
H          0.36290       -4.22830        1.23550
H          1.01940       -3.31510        2.60640
H          1.16800       -2.90260       -1.18450
