10
gdb 23801	4.20078	1.89568	1.30622	0.1837	52.25	-0.2747	-0.093	0.1817	800.522	0.061158	-454.746596	-454.740799	-454.739855	-454.776767	21.335
F          0.05550        0.07840        0.00260
C         -0.03960        1.39130        0.01120
C         -1.24810        2.00270        0.03090
C         -1.26660        3.44480        0.03830
O         -2.21150        4.20160        0.05650
N          0.06120        3.95350        0.02370
N          1.20990        3.28700        0.00440
N          1.18100        2.00910       -0.00240
H         -2.17840        1.45130        0.04080
H          0.16710        4.96130        0.02820
