13
gdb 4405	3.71692	2.10365	1.34465	4.8451	69.03	-0.2039	-0.0493	0.1546	844.1692	0.097013	-394.804084	-394.797368	-394.796424	-394.834823	25.707
N          0.10050        1.34770        0.17790
C         -0.04740       -0.00890        0.05940
C         -1.21190       -0.71070        0.02070
N         -1.21070       -2.08320       -0.02330
C         -0.07960       -2.70550       -0.03570
C          1.21450       -2.03980       -0.00940
N          2.33360       -2.63380       -0.02870
O          1.14720       -0.63860        0.03660
H          0.97950        1.71600       -0.15460
H         -0.70410        1.90300       -0.06770
H         -2.16940       -0.20610        0.03200
H         -0.05910       -3.79020       -0.07090
H          3.10870       -1.97120       -0.00160
