15
gdb 20288	4.1949	3.13481	2.87004	1.5676	64.81	-0.2266	0.0718	0.2984	585.2679	0.12254	-325.445127	-325.440608	-325.439663	-325.473346	20.401
C          0.02040        1.49900        0.05870
C         -0.28090        1.85380        1.50790
C          0.83530        1.33400        2.40080
C         -0.45230        0.55690        2.26460
N          0.17880       -0.46440        1.37170
C          0.02800       -0.00860       -0.04540
C          1.33770        0.74240       -0.01580
C          1.48960        0.31150        1.45430
H         -0.30400        2.11390       -0.77020
H         -0.83550        2.73990        1.78650
H          1.26440        1.85570        3.24660
H         -1.23930        0.31550        2.96860
H         -0.45430       -0.60900       -0.80720
H          2.10020        0.87150       -0.77320
H          2.36330       -0.25500        1.77460
