12
gdb 1157	3.40903	2.29626	1.91973	3.8645	54.94	-0.298	-0.0195	0.2785	708.824	0.089471	-319.568017	-319.560507	-319.559563	-319.599209	26.349
C         -0.01510        1.54490        0.00910
C          0.01080       -0.00040        0.01840
N          0.76210       -0.46300        1.18820
C         -1.38600       -0.51350       -0.00460
N         -2.46970       -0.91020        0.05550
C          0.70240       -0.48690       -1.19510
N          1.24730       -0.85330       -2.14430
H          1.01230        1.91170        0.02400
H         -0.53000        1.91820       -0.87750
H         -0.54170        1.90180        0.89810
H          0.29780       -0.13860        2.03210
H          0.77810       -1.47830        1.22300
