20
gdb 8491	2.68413	2.01008	1.92547	1.79	75.12	-0.2304	0.0862	0.3166	883.6457	0.17499	-348.950524	-348.942093	-348.941149	-348.982531	32.848
C          0.17490        1.41540        0.02100
C          0.05410       -0.07280       -0.09320
C          0.72900       -1.05020       -1.09400
C          0.05500       -1.86710        0.02890
O          0.62800       -0.90900        1.00080
C         -1.23420       -0.98460       -0.05150
C         -2.06170       -0.90040        1.22930
C         -2.15410       -1.06830       -1.26830
H          1.22580        1.71100        0.09640
H         -0.25740        1.89900       -0.86100
H         -0.35180        1.78020        0.90820
H          0.36310       -1.11980       -2.11860
H          1.81830       -1.04720       -1.04220
H          0.15110       -2.92840        0.26390
H         -1.42170       -0.84440        2.10940
H         -2.71340       -0.01890        1.21040
H         -2.71260       -1.77740        1.32330
H         -2.80170       -1.94910       -1.19090
H         -2.81180       -0.19210       -1.30380
H         -1.63100       -1.12700       -2.22360
