15
gdb 9053	4.47479	1.00881	0.85959	4.6633	68.91	-0.2766	-0.0032	0.2734	1276.2434	0.115537	-362.621115	-362.612086	-362.611142	-362.655902	31.008
C          0.03020        1.50630       -0.02600
C         -0.00030       -0.02840        0.02280
O          0.70280       -0.54270        1.16150
C          2.10230       -0.52750        1.01670
C          2.70210       -1.24530        2.14540
N          3.20860       -1.80070        3.02140
C         -1.36900       -0.53210        0.09380
C         -2.50600       -0.91610        0.12820
H          1.05380        1.87730       -0.12920
H         -0.54710        1.86370       -0.88250
H         -0.40680        1.91490        0.88810
H          0.47190       -0.42740       -0.89080
H          2.41710       -1.02060        0.08230
H          2.51510        0.49270        1.00210
H         -3.50760       -1.26820        0.16460
