15
gdb 12446	3.80677	2.01171	1.38976	1.4426	66.09	-0.2347	-0.0013	0.2335	855.9992	0.122133	-395.998117	-395.991297	-395.990353	-396.029418	25.543
N          0.01000        1.24290        0.62530
C          0.03430        0.14690       -0.01520
N         -1.14480       -0.28230       -0.62830
C         -1.59470       -1.52930       -1.05490
N         -1.00570       -2.63200       -1.25750
C          0.41900       -2.79150       -1.05460
C          1.26600       -1.53780       -1.22590
O          1.13150       -0.62810       -0.12440
H          0.94380        1.46740        0.96200
H         -1.86620        0.41480       -0.51240
H         -2.66650       -1.48640       -1.25690
H          0.60470       -3.20640       -0.05420
H          0.77600       -3.54470       -1.76890
H          2.32740       -1.79770       -1.23600
H          1.02620       -1.02600       -2.16550
