13
gdb 21937	3.33803	1.86316	1.2963	2.2491	55.77	-0.2396	-0.0077	0.2319	886.5495	0.097124	-431.912378	-431.905024	-431.90408	-431.944757	26.174
O          0.19600        1.37470       -0.03110
C          0.09750       -0.04590       -0.03780
C         -1.31590       -0.53290       -0.05230
N         -1.98090       -0.84850        1.06460
N         -3.18870       -1.16960        0.64020
N         -3.39390       -1.10220       -0.68050
C         -2.21420       -0.69380       -1.13020
O         -1.94580       -0.48750       -2.42970
H         -0.26810        1.68690        0.75300
H          0.61040       -0.37020       -0.94740
H          0.61610       -0.49000        0.82300
H         -3.91280       -1.47280        1.26950
H         -2.74320       -0.69100       -2.93380
