13
gdb 4588	5.96647	1.58564	1.25437	3.6957	64.07	-0.2121	-0.037	0.1751	892.0576	0.098345	-394.842058	-394.83549	-394.834546	-394.87258	25.15
N          0.01720        1.40750        0.18620
C          0.00760        0.01560        0.04810
C         -1.17540       -0.73280        0.05340
N         -1.20310       -2.06020       -0.01110
C         -0.02040       -2.66200       -0.08190
O         -0.04660       -4.00690       -0.14400
N          1.17470       -2.07200       -0.10110
C          1.17820       -0.74190       -0.03600
H          0.83340        1.85620       -0.20660
H         -0.82510        1.85990       -0.14200
H         -2.14050       -0.23020        0.11240
H          0.87610       -4.28920       -0.19040
H          2.15260       -0.25530       -0.05090
