18
gdb 14060	3.258	1.65134	1.46922	1.53	68.17	-0.2206	0.0604	0.281	949.0067	0.15253	-384.898213	-384.889868	-384.888924	-384.930898	30.719
C          0.02350        1.61100       -0.16410
C          0.03860        0.10440       -0.03190
C          1.35040       -0.68740       -0.06640
O          2.57950       -0.01890       -0.10030
C          0.57640       -0.55930        1.20090
C          1.05270        0.03560        2.51890
C          0.39630       -1.22270        3.12960
O         -0.06350       -1.66930        1.83010
H          0.94110        2.04840        0.23880
H         -0.05750        1.91640       -1.21350
H         -0.82530        2.04840        0.37250
H         -0.79870       -0.41830       -0.48960
H          1.32600       -1.65750       -0.56350
H          2.71530        0.31660       -0.99300
H          2.13510        0.11580        2.62300
H          0.58730        0.98250        2.79990
H          1.08910       -1.94160        3.58170
H         -0.44060       -1.04700        3.81430
