20
gdb 11898	4.53551	1.43698	1.22793	0.3092	81.31	-0.2241	0.0362	0.2603	1060.7103	0.177501	-311.879055	-311.87116	-311.870215	-311.911507	30.646
C         -0.34160        1.45230        0.08900
C         -0.00650       -0.00280       -0.00320
C         -0.11560       -0.79220       -1.07400
C          0.34430       -2.20460       -0.81900
C          0.59610       -2.21690        0.69840
C          0.01020       -3.31330        1.55270
C          1.50270       -3.23350        1.33670
C          0.55610       -0.75980        1.18150
H          0.53730        2.04490        0.37470
H         -0.71830        1.84150       -0.86100
H         -1.10210        1.63750        0.85870
H         -0.47220       -0.46350       -2.04510
H         -0.40030       -2.95270       -1.12170
H          1.25660       -2.43390       -1.39000
H         -0.37900       -3.04750        2.53090
H         -0.53560       -4.11100        1.05820
H          1.96710       -3.97800        0.69730
H          2.12350       -2.91590        2.16890
H          1.55610       -0.38020        1.44210
H         -0.05940       -0.63450        2.08290
