14
gdb 10967	2.77806	2.68235	1.9256	2.1705	62.61	-0.2561	-0.0116	0.2444	742.9831	0.106118	-382.51775	-382.510937	-382.509992	-382.548587	25.831
C          0.03520        1.54340       -0.06420
C         -0.00820        0.04860        0.03490
O          0.32700       -0.69230       -1.18370
C         -0.24680       -1.86900       -0.55470
C          0.56940       -2.01520        0.70820
C          0.72950       -0.73770        1.10040
C         -1.33930       -0.84270       -0.01470
O         -2.50800       -0.73030        0.11270
H          1.05180        1.88730       -0.27710
H         -0.62700        1.89750       -0.85780
H         -0.28840        1.98990        0.88060
H         -0.44230       -2.70290       -1.22310
H          0.84520       -2.93630        1.19970
H          1.17480       -0.33470        1.99850
