14
gdb 18313	3.68648	2.19966	1.49531	3.529	64.15	-0.2404	-0.0286	0.2118	804.75	0.107455	-382.510995	-382.504585	-382.503641	-382.541711	24.197
O         -0.06640        0.01430        0.19500
C         -0.03530        1.20060        0.05580
C         -1.26170        2.17600        0.04140
C         -0.66580        3.42200        0.67410
C          0.65690        3.40110        0.51620
C          1.97350        3.56790        1.23260
O          2.29130        2.17880        0.88190
C          1.19060        2.14420       -0.07380
H         -1.60680        2.30700       -0.99300
H         -2.09720        1.75320        0.60700
H         -1.23750        4.09680        1.29990
H          2.69580        4.25360        0.77290
H          1.93760        3.73510        2.31380
H          1.56630        2.13510       -1.10680
