17
gdb 10739	2.52594	1.91314	1.56931	4.2259	67.75	-0.2803	0.0338	0.3141	916.9467	0.140321	-363.858962	-363.850318	-363.849373	-363.891834	31.305
C         -0.09590        1.45390       -0.18570
C          0.02850       -0.06650        0.06410
C          0.74860       -0.34880        1.40180
C         -1.31980       -0.65350        0.11430
N         -2.37620       -1.11720        0.18230
C          0.83200       -0.68940       -1.08060
C          0.52050       -1.97530       -1.71370
O          0.22040       -0.73010       -2.35990
H          0.90130        1.90450       -0.20540
H         -0.58430        1.64440       -1.14370
H         -0.67600        1.93220        0.60740
H          0.20530        0.10440        2.23450
H          0.83180       -1.42260        1.58750
H          1.75540        0.07920        1.37540
H          1.87000       -0.34900       -1.08660
H          1.32200       -2.55370       -2.16990
H         -0.34690       -2.54250       -1.38430
