12
gdb 1402	7.27191	1.44333	1.25556	2.8469	56.6	-0.2811	0.0024	0.2835	879.0547	0.087935	-323.345161	-323.337545	-323.336601	-323.376993	26.433
O         -0.07930        1.44600        0.03790
C          0.02110        0.04240        0.01390
C          0.68260       -0.50790       -1.27700
C         -0.04610       -0.11920       -2.47470
C         -0.65960        0.19690       -3.45740
C          0.74790       -0.46810        1.19710
N          1.34550       -0.84930        2.10950
H          0.80920        1.82070        0.01520
H         -1.00890       -0.32470        0.06210
H          1.71830       -0.14650       -1.32100
H          0.74230       -1.60040       -1.20040
H         -1.19720        0.47680       -4.32960
