18
gdb 6326	4.83492	1.1183	0.9238	1.3289	74.87	-0.2394	-0.0074	0.232	1264.5078	0.151131	-381.168573	-381.158469	-381.157525	-381.205716	33.567
C          0.86870        1.80580        0.07920
N          0.84200        0.38710        0.38720
C          0.38920       -0.44880       -0.45970
C         -0.16430       -0.17760       -1.83310
N          0.42540       -1.78700       -0.02480
C          0.02820       -2.94800       -0.65580
C          0.25010       -4.19230        0.19250
O         -0.45060       -2.99100       -1.77120
H          1.49120        2.03900       -0.79580
H         -0.13240        2.21940       -0.10560
H          1.29140        2.34090        0.93360
H          0.40400       -0.72010       -2.59180
H         -1.19040       -0.54300       -1.91420
H         -0.13750        0.89000       -2.04900
H          0.81270       -1.86150        0.90600
H          1.30900       -4.30940        0.44560
H         -0.31130       -4.13110        1.13070
H         -0.08450       -5.06140       -0.37240
