13
gdb 4415	3.72368	1.98142	1.29326	5.2097	64.49	-0.2076	-0.0256	0.182	861.4221	0.097751	-398.676693	-398.670299	-398.669355	-398.707079	24.944
O         -0.11590        1.34500        0.01080
C          0.06800        0.00880        0.00260
C          1.26830       -0.64750       -0.00770
C          1.23050       -2.06690       -0.01510
C          0.06190       -2.77090       -0.01230
C         -1.21920       -2.10070       -0.00170
O         -2.33070       -2.59920        0.00220
N         -1.09460       -0.68440        0.00540
H          0.74330        1.78090        0.00850
H          2.20020       -0.09810       -0.01000
H          2.17450       -2.60370       -0.02330
H          0.04000       -3.85260       -0.01790
H         -1.96670       -0.17180        0.01310
