20
gdb 19212	2.60953	2.60914	2.17757	0.0002	77.18	-0.2136	0.0795	0.293	799.5256	0.178374	-311.80701	-311.800051	-311.799107	-311.838003	28.508
C          0.03410        1.51340       -0.33150
C          1.46750        1.61250        0.31300
C          1.40830        0.09290        0.63460
C          0.84700       -0.39040        2.00090
C         -0.58650       -0.48950        1.35630
C          0.00750       -0.00390        0.00470
C          0.52580       -1.03850       -1.03290
C          1.95940       -0.93940       -0.38830
H         -0.73630        2.10740        0.16940
H         -0.00610        1.74690       -1.39980
H          2.26310        1.90380       -0.37940
H          1.53240        2.26430        1.18950
H          1.25760       -1.34080        2.35500
H          0.93470        0.33540        2.81500
H         -1.01120       -1.49770        1.33470
H         -1.33390        0.17860        1.79490
H          0.06030       -2.02660       -0.96710
H          0.46770       -0.71050       -2.07520
H          2.73660       -0.55360       -1.05490
H          2.32930       -1.86970        0.05320
