17
gdb 1787	5.11709	1.77841	1.58367	2.0298	60.44	-0.2559	0.0833	0.3393	838.6633	0.146244	-346.840727	-346.832489	-346.831545	-346.872904	29.687
C          0.24460        1.41040       -0.30640
C          0.09650       -0.03280        0.10200
O          1.29080       -0.82760        0.17360
C          0.53810       -0.60120        1.38840
C          1.23670        0.20590        2.45880
C         -0.11930       -1.88030        1.87850
O          0.85120       -2.80470        2.34030
H          1.06540        1.90340        0.21680
H          0.43940        1.47690       -1.38190
H         -0.68130        1.95850       -0.10080
H         -0.72960       -0.54770       -0.39490
H          0.50580        0.67690        3.12540
H          1.86030       -0.46070        3.06150
H          1.87290        0.98120        2.03050
H         -0.77900       -1.67440        2.72850
H         -0.72900       -2.31160        1.07080
H          1.45810       -2.94510        1.60360
