18
gdb 18578	3.13743	2.24541	1.82012	1.4971	71.71	-0.2403	0.0178	0.2581	806.7944	0.156073	-347.802474	-347.795732	-347.794788	-347.833196	27.277
O         -0.16470        1.38110        0.76410
C         -0.03550        0.12250        0.13950
C          0.54990       -1.01920        1.02150
C         -0.85510       -1.69260        1.06090
C         -1.72070       -1.31530        2.23540
C         -2.67970       -0.44340        1.91230
C         -2.65940       -0.06370        0.44650
C         -1.35610       -0.71220       -0.05230
H         -0.57410        1.24020        1.62560
H          0.51080        0.31730       -0.78670
H          1.30090       -1.61880        0.49940
H          0.96960       -0.69550        1.97900
H         -0.86660       -2.76880        0.86020
H         -1.56440       -1.72680        3.22790
H         -3.41870       -0.05120        2.60380
H         -3.54590       -0.44650       -0.07610
H         -2.64960        1.02240        0.29760
H         -1.43450       -1.13430       -1.05560
