15
gdb 10109	2.20777	1.70301	1.00534	3.1017	64.62	-0.2617	-0.0023	0.2594	1117.4944	0.118277	-395.972878	-395.964016	-395.963072	-396.00741	29.988
N         -0.04410        1.48640        0.03110
C          0.01150        0.03370       -0.05810
C         -1.42020       -0.51000       -0.02170
O         -2.07240       -0.03600       -1.19790
C         -3.43080       -0.01370       -1.18510
N         -4.04620        0.40350       -2.19930
C         -1.44190       -1.98320        0.03380
N         -1.45860       -3.13680        0.09150
H          0.89250        1.86540        0.11910
H         -0.43770        1.86230       -0.82590
H          0.50170       -0.36720       -0.95920
H          0.54500       -0.36190        0.81190
H         -1.91900       -0.11340        0.87170
H         -3.86710       -0.37530       -0.24540
H         -5.05100        0.36960       -2.04150
