13
gdb 21791	6.31886	1.17893	1.0958	2.116	61.31	-0.2556	-0.0434	0.2122	1029.1237	0.095005	-398.601991	-398.594931	-398.593987	-398.634876	24.251
O         -0.50090        0.52160        0.69810
C          0.08430        0.93760       -0.26370
C          1.31430        1.84480       -0.18070
C          1.24480        2.97410       -1.14990
C          0.93140        4.29380       -1.03640
C          1.01920        4.76980       -2.37140
N          1.34950        3.82570       -3.21680
O          1.49350        2.67700       -2.44010
H         -0.22500        0.68000       -1.29950
H          1.41120        2.20870        0.84360
H          2.18920        1.22230       -0.41280
H          0.68060        4.84040       -0.14300
H          0.85380        5.77080       -2.74440
