22
gdb 8311	4.69398	0.9509	0.90191	1.4488	79.31	-0.2395	0.0926	0.3321	1415.2708	0.199312	-350.205688	-350.196351	-350.195407	-350.240319	33.98
C         -0.08770        1.49820       -0.29150
C         -0.08580       -0.02510       -0.14200
C         -1.47630       -0.60220        0.14700
C         -1.47480       -2.11600        0.25220
C         -2.82200       -2.86840        0.26420
C         -2.23830       -3.64700       -0.93530
C         -3.01020       -3.68100       -2.23800
O         -1.09170       -2.76250       -0.98900
H          0.91680        1.88000       -0.49950
H         -0.73990        1.81440       -1.11340
H         -0.44760        1.98750        0.62090
H          0.30030       -0.49070       -1.05570
H          0.60050       -0.31520        0.66470
H         -1.86990       -0.18900        1.08690
H         -2.17340       -0.30450       -0.64740
H         -0.80240       -2.43320        1.06460
H         -3.06000       -3.44450        1.15970
H         -3.67560       -2.23750        0.00100
H         -1.91820       -4.66350       -0.66210
H         -3.35330       -2.67870       -2.51260
H         -2.37820       -4.06070       -3.04730
H         -3.88240       -4.33820       -2.14870
