17
gdb 5624	3.15138	1.92369	1.21266	2.2277	71.61	-0.1867	0.0561	0.2428	989.7543	0.142317	-363.889676	-363.881315	-363.880371	-363.922436	30.359
C         -0.09220        1.36410        0.00650
O         -0.03590       -0.04550        0.01350
C          0.63390       -0.59570        1.06250
C          1.26670        0.02310        2.12040
N          1.79020       -0.98340        2.90700
C          1.49620       -2.20320        2.36000
C          0.77320       -2.00900        1.20430
C          0.23210       -3.04500        0.26930
H          0.91410        1.80460       -0.03850
H         -0.65370        1.65630       -0.88300
H         -0.60300        1.74870        0.90090
H          1.38850        1.06010        2.37940
H          2.30970       -0.83720        3.75260
H          1.82000       -3.11890        2.82940
H         -0.85870       -2.98130        0.18120
H          0.63590       -2.92780       -0.74300
H          0.48170       -4.05250        0.61470
