18
gdb 11545	4.20533	1.18601	1.01798	3.4325	70.25	-0.2358	0.0409	0.2768	1187.7532	0.153644	-381.120953	-381.112141	-381.111196	-381.155199	30.832
C          0.02720        1.30110       -0.77940
N          0.22320       -0.11520       -1.00050
C          0.89350       -0.90910       -0.12820
O          1.40240       -0.52730        0.91160
C          0.93830       -2.38760       -0.53170
N          0.64100       -2.60560       -1.94280
C          1.79040       -2.74500       -2.83650
C          0.95740       -3.92530       -2.47890
H          0.53830        1.56100        0.14880
H          0.44790        1.89490       -1.59870
H         -1.03620        1.54920       -0.68150
H         -0.15600       -0.57110       -1.81730
H          1.91980       -2.77810       -0.22310
H          0.18180       -2.90940        0.06720
H          1.69220       -2.27730       -3.81160
H          2.78310       -2.68010       -2.39520
H          1.39350       -4.65530       -1.79980
H          0.24150       -4.33150       -3.18750
