11
gdb 2644	38.60765	0.77693	0.76525	4.6751	78.37	-0.2579	-0.0807	0.1772	1390.2566	0.075774	-306.081547	-306.07355	-306.072606	-306.117159	24.939
C         -0.00100        1.48220        0.00990
C          0.00470        0.03260        0.00210
C          0.00670       -1.17880       -0.00440
C          0.00690       -2.53310       -0.01170
C          0.00320       -3.74820       -0.01820
C          0.03960       -5.18470       -0.02610
O         -0.94030       -5.89600       -0.02280
H          1.01780        1.88440        0.00080
H         -0.52780        1.87460       -0.86700
H         -0.50820        1.86500        0.90250
H          1.06390       -5.60950       -0.03580
