15
gdb 4799	4.74575	1.51737	1.15984	1.7287	64.11	-0.1709	0.0621	0.2329	992.9811	0.120194	-396.010524	-396.002521	-396.001577	-396.042777	28.954
C         -0.00510        1.37850       -0.00440
O          0.00140       -0.04870       -0.04580
C          0.63530       -0.57640       -1.10060
N          1.22620        0.06230       -2.08120
C          1.71730       -0.93590       -2.90440
N          2.47330       -0.58340       -4.02730
C          1.41180       -2.17450       -2.41010
N          0.70320       -1.91900       -1.22580
H          1.01560        1.77040        0.02810
H         -0.50980        1.79000       -0.88350
H         -0.54540        1.64600        0.90440
H          2.23980        0.35240       -4.33350
H          2.37480       -1.23460       -4.79470
H          1.62100       -3.17450       -2.74620
H          0.31200       -2.59080       -0.58960
