19
gdb 1789	3.56238	2.03715	1.65911	1.2653	67.57	-0.2502	0.0829	0.3331	854.3306	0.169908	-310.909223	-310.900761	-310.899817	-310.941389	31.495
C          0.17880        1.47610        0.26770
C         -0.23120        0.06920       -0.18410
C          0.60780       -0.48160       -1.32860
C          0.43570        0.21680       -2.66510
C          1.99100       -1.02210       -0.99370
C          0.87120       -1.96400       -1.36860
O          0.27900       -2.76560       -0.38590
H          1.22590        1.49750        0.58850
H          0.06330        2.21380       -0.53290
H         -0.43640        1.80800        1.11000
H         -0.17180       -0.62320        0.65990
H         -1.28510        0.07810       -0.49340
H          0.75920        1.26230       -2.61740
H          1.02470       -0.27040       -3.44890
H         -0.61430        0.20570       -2.98090
H          2.80580       -0.86700       -1.69380
H          2.28380       -1.01360        0.05180
H          0.91390       -2.42680       -2.35560
H          0.92670       -3.42250       -0.11090
