18
gdb 9611	3.13365	1.4768	1.19845	4.9192	73.24	-0.2698	0.0177	0.2875	1063.6238	0.153013	-343.983568	-343.97475	-343.973805	-344.016897	32.032
C          0.19280        1.48840        0.23520
C         -0.23730        0.07720       -0.18220
C          0.58430       -0.48020       -1.33380
C          0.43000        0.21680       -2.67170
N          1.91550       -0.96320       -0.94700
C          0.90050       -1.95020       -1.37960
C          0.42610       -2.88120       -0.38460
N          0.01750       -3.63580        0.39050
H          1.25400        1.50140        0.50160
H          0.03140        2.22220       -0.56100
H         -0.37850        1.82000        1.10670
H         -0.14110       -0.59660        0.67370
H         -1.29590        0.07200       -0.47050
H          0.77730        1.25320       -2.61240
H          1.00820       -0.28660       -3.45330
H         -0.61870        0.23470       -2.98590
H          2.58840       -0.83030       -1.69890
H          1.00400       -2.39440       -2.36630
