17
gdb 18256	4.25202	1.60409	1.3256	2.0189	68.6	-0.2357	0.0064	0.242	934.7658	0.143923	-363.831	-363.823798	-363.822853	-363.862479	27.739
O          0.10460        1.43110        0.05640
C          0.04140        0.01410        0.14100
C         -1.39600       -0.52570        0.02810
C         -2.08230       -0.20440       -1.28900
C         -2.54290       -1.29260       -1.91050
C         -2.19700       -2.52150       -1.13770
N         -0.72110       -2.72080       -1.02220
C         -1.46690       -2.05410        0.07130
H          0.00930        1.67330       -0.86930
H          0.66610       -0.47050       -0.61900
H          0.44870       -0.24540        1.12440
H         -1.97060       -0.09800        0.86170
H         -2.16420        0.81020       -1.66350
H         -3.06870       -1.31090       -2.85770
H         -2.83880       -3.39590       -1.13950
H         -0.54660       -3.68430       -0.73970
H         -1.54890       -2.56250        1.02600
