20
gdb 15631	2.95718	1.64829	1.11599	1.4853	77.4	-0.2226	0.037	0.2596	1098.3067	0.1771	-349.018586	-349.009894	-349.008949	-349.051799	32.142
C         -0.07070        1.56840       -0.01330
C          0.03980        0.03960        0.05000
C          0.75630       -0.57730       -1.18020
C          1.53620       -1.80200       -0.64480
C          1.65820       -1.50290        0.82930
C          0.85420       -0.51060        1.21150
C          0.66510       -0.00540        2.60560
O          1.43000       -0.78310        3.51020
H          0.92210        2.03150       -0.04780
H         -0.61610        1.87950       -0.91060
H         -0.60420        1.97720        0.85170
H         -0.98390       -0.36270        0.12420
H          0.06380       -0.82500       -1.98950
H          1.46580        0.15840       -1.57680
H          0.98380       -2.73960       -0.80490
H          2.50490       -1.93270       -1.14080
H          2.28920       -2.06850        1.50320
H          0.95340        1.05900        2.65600
H         -0.41120       -0.03980        2.85810
H          1.34660       -0.39090        4.38370
