16
gdb 6817	3.05211	1.76601	1.4637	5.2486	65.11	-0.2595	-0.0007	0.2588	906.3042	0.129906	-379.90603	-379.897811	-379.896867	-379.938604	30.02
C         -0.19540        1.53350       -0.01250
C         -0.04590        0.01820       -0.03020
N         -1.32090       -0.60450       -0.29490
C          1.24240       -0.46280       -0.77010
O          1.90980       -0.73350        0.48260
C          0.68910       -0.57650        1.22290
C          0.83690        0.25600        2.41490
N          0.93290        0.92630        3.35150
H          0.74230        2.01850        0.26830
H         -0.47770        1.89240       -1.00890
H         -0.96920        1.83540        0.69800
H         -1.80280       -0.14280       -1.05880
H         -1.21830       -1.58310       -0.54420
H          1.09790       -1.37930       -1.35880
H          1.78540        0.27550       -1.36930
H          0.26240       -1.54440        1.52070
