14
gdb 13041	4.00277	1.45763	1.12533	6.9256	62.52	-0.2633	0.016	0.2793	995.3141	0.107755	-378.754315	-378.746643	-378.745699	-378.787178	26.657
O         -0.00400        0.00850       -0.05350
C         -0.01680        1.20700       -0.04310
N         -1.02480        2.14080       -0.04840
C         -0.15770        3.31740        0.02910
C          1.05420        2.33750        0.00480
C          1.96980        2.35080        1.23460
C          3.01750        1.33240        1.17410
N          3.86490        0.54940        1.12190
H         -2.02870        2.04140       -0.07080
H         -0.22860        3.99210       -0.82930
H         -0.26380        3.89240        0.95580
H          1.64100        2.39310       -0.91440
H          2.45480        3.32980        1.32690
H          1.38220        2.19900        2.14750
