17
gdb 11027	4.20165	1.81725	1.48949	2.7975	68.66	-0.2329	0.0046	0.2374	875.452	0.143162	-363.843179	-363.835954	-363.83501	-363.874168	28.57
C         -0.12060        1.50590        0.05120
C          0.11180        0.01990       -0.01080
N         -0.70460       -0.90330        0.84430
C          0.76140       -0.78300        1.04980
C          1.49660       -1.96200        0.40030
O          1.00340       -3.21890        0.83330
C          1.25000       -1.71940       -1.08520
C          0.48400       -0.65130       -1.30400
H          0.73550        2.05220       -0.35880
H         -1.00570        1.79130       -0.52890
H         -0.27140        1.84070        1.08260
H         -1.17660       -0.35630        1.56350
H          1.12680       -0.34670        1.97300
H          2.56400       -1.95850        0.64860
H          0.04030       -3.12750        0.79750
H          1.60340       -2.41810       -1.83470
H          0.12800       -0.30310       -2.26740
