19
gdb 15890	2.66489	1.81596	1.17388	2.6139	72.5	-0.2198	-0.0209	0.1989	1054.4141	0.163694	-365.053962	-365.045165	-365.044221	-365.087305	31.919
C         -0.57780        1.24170        0.13490
C         -0.12170       -0.22050        0.08980
C          0.65320       -0.60830       -1.18070
N          2.11840       -0.33550       -1.29040
C          2.77540        0.68350       -0.50370
C          2.49980       -1.74390       -1.07460
C          1.01680       -2.10320       -1.22090
O          0.38840       -3.11620       -1.29530
H          0.26670        1.93630        0.14880
H         -1.19370        1.48470       -0.73760
H         -1.17740        1.43270        1.03030
H          0.47220       -0.46180        0.97990
H         -1.00110       -0.87540        0.12530
H          0.09910       -0.25480       -2.06150
H          2.65510        0.56590        0.58900
H          3.84870        0.66150       -0.71980
H          2.40580        1.67470       -0.78380
H          3.19860       -2.16250       -1.80790
H          2.87080       -1.98000       -0.06140
