17
gdb 8764	3.30056	1.31082	1.19251	3.6334	72.05	-0.2482	0.0215	0.2697	1078.1888	0.139631	-363.851631	-363.842329	-363.841385	-363.885851	32.712
C         -0.05210        1.57520       -0.03080
C          0.06680        0.03940        0.01640
C          0.70820       -0.47880       -1.19930
C          1.24050       -0.88280       -2.19790
N          0.74270       -0.43280        1.22440
C          2.14050       -0.09590        1.44570
C          0.09240       -1.24250        2.11200
O          0.56500       -1.69410        3.13240
H          0.93100        2.04610       -0.10320
H         -0.63410        1.87530       -0.90570
H         -0.55300        1.93610        0.87170
H         -0.94920       -0.37240        0.06270
H          1.70320       -1.25400       -3.07920
H          2.26820        0.97070        1.66070
H          2.48150       -0.67310        2.30490
H          2.73620       -0.35300        0.56430
H         -0.94940       -1.44560        1.79310
