13
gdb 4403	3.91048	1.98853	1.31925	7.6746	64.84	-0.2189	-0.033	0.1858	851.6643	0.098319	-394.852842	-394.846222	-394.845278	-394.883467	25.395
N          0.02290        1.39110        0.15320
C         -0.04750        0.02810        0.05110
C         -1.22170       -0.69810        0.02880
C         -1.09160       -2.09850       -0.01990
N          0.02730       -2.78520       -0.05130
C          1.21690       -2.09650       -0.02860
O          2.32820       -2.57860       -0.04500
N          1.11330       -0.66650        0.01890
H          0.85670        1.84910       -0.18120
H         -0.82800        1.89590       -0.03740
H         -2.18640       -0.21110        0.04650
H         -2.00650       -2.69220       -0.03930
H          2.00600       -0.19450        0.06650
