15
gdb 6425	3.73515	1.53049	1.31192	3.5383	68.12	-0.2515	0.022	0.2735	951.9095	0.11681	-362.653786	-362.645743	-362.644798	-362.686082	30.115
C         -0.08970        1.56210        0.02630
C         -0.02250        0.03330       -0.01920
C          0.74090       -0.57670       -1.25310
C          1.73580       -1.14950       -0.21870
O          2.71030       -1.84860       -0.25150
N          1.05970       -0.53960        0.81330
C         -1.33030       -0.56630        0.23450
C         -2.41170       -1.04170        0.45620
H          0.89950        1.98480       -0.16980
H         -0.79360        1.93440       -0.72330
H         -0.42890        1.90510        1.00810
H          0.18820       -1.33550       -1.80670
H          1.16110        0.16090       -1.93890
H          1.10980       -0.67860        1.81290
H         -3.36390       -1.47210        0.64780
