13
gdb 6254	4.29726	1.37535	1.06898	5.1033	58.89	-0.2637	-0.0701	0.1937	1022.7738	0.095481	-431.968009	-431.95996	-431.959016	-432.001168	28.217
N          0.22210        1.20070        0.02810
C         -0.24330       -0.04090       -0.33450
O         -0.31070       -0.42320       -1.48640
N         -0.60140       -0.83550        0.75380
C         -0.97900       -2.17370        0.64050
N         -0.77110       -2.96180        1.61550
C         -1.74710       -2.60630       -0.60320
O         -1.89930       -3.77780       -0.83620
H          0.34070        1.83820       -0.74320
H         -0.07650        1.61400        0.89700
H         -0.22110       -0.60580        1.66260
H         -1.15210       -3.87960        1.37200
H         -2.18610       -1.81140       -1.22370
