15
gdb 19686	4.91002	1.85931	1.66876	3.9493	65.49	-0.2318	0.0182	0.25	785.8698	0.12017	-362.61579	-362.609658	-362.608714	-362.646129	23.905
O          0.26320        0.07740        0.71440
C          0.20760        1.24290        0.38520
N          1.18670        1.90260       -0.30100
C          1.56160        3.31050       -0.25830
C          2.81620        3.41560        0.64360
C          3.13340        1.98610        1.09100
C          2.63020        1.55690       -0.32000
C          2.92040        3.03010       -0.81940
H         -0.68540        1.88230        0.54640
H          0.87520        4.12430       -0.44830
H          3.09970        4.35060        1.10960
H          4.21160        1.83830        1.18670
H          2.61170        1.55520        1.95030
H          2.91020        0.61790       -0.78730
H          3.45270        3.43610       -1.66620
