20
gdb 6843	3.05101	1.55549	1.35333	1.067	71.69	-0.2441	0.0794	0.3235	1033.4786	0.174726	-386.123944	-386.114712	-386.113768	-386.157453	34.069
C          0.11980        1.54910        0.36030
O          0.67720        0.29980        0.02050
C          0.70520       -0.60670        1.08710
C         -0.59790       -1.34450        1.50870
C          0.24920       -2.63880        1.64990
C          1.36130       -1.97110        0.77710
C          1.30170       -2.36210       -0.69500
O          2.68470       -2.03190        1.27450
H          0.67800        2.03280        1.17730
H          0.17390        2.18310       -0.52810
H         -0.93310        1.46180        0.66820
H          1.20340       -0.16470        1.96350
H         -1.12360       -0.98440        2.39470
H         -1.30060       -1.39990        0.67300
H          0.61000       -2.78880        2.67010
H         -0.18650       -3.56990        1.27970
H          0.28700       -2.28350       -1.09410
H          1.94990       -1.71110       -1.28630
H          1.62990       -3.40200       -0.81940
H          3.09000       -2.84560        0.95660
