16
gdb 15884	2.8416	1.87595	1.25236	3.7586	60.44	-0.2761	0.0021	0.2781	959.256	0.130071	-420.902774	-420.894738	-420.893793	-420.935452	28.864
C          0.11910        1.47840       -0.31170
C         -0.06370        0.04090        0.12230
O          0.69640       -0.88940       -0.74540
C          1.40660       -1.36930        0.31620
O          2.30930       -2.15080        0.31150
C          0.69620       -0.51260        1.35570
C          1.66090        0.33360        2.19310
O          2.43790       -0.50650        3.02090
H          1.17460        1.75910       -0.34510
H         -0.30440        1.62610       -1.30920
H         -0.39990        2.14930        0.38050
H         -1.11790       -0.24720        0.10090
H          0.07110       -1.10790        2.02590
H          2.29280        0.95490        1.54110
H          1.10860        1.00770        2.85560
H          2.87860       -1.14890        2.44910
