15
gdb 10424	2.51056	2.10973	1.45758	5.0898	61.31	-0.2772	-0.0009	0.2763	888.1967	0.118521	-399.7825	-399.774611	-399.773667	-399.815192	28.031
O          0.02330        1.31610        0.29500
C         -0.01310       -0.04850       -0.03480
C         -1.45980       -0.53550       -0.16480
C         -1.69970       -2.06350       -0.02930
C         -2.41070       -1.69460        1.28750
O         -2.16010       -0.27970        1.08000
C         -2.14400        0.10380       -1.29760
N         -2.68430        0.56750       -2.20750
H         -0.52700        1.42460        1.08110
H          0.52000       -0.17500       -0.98250
H          0.47970       -0.67430        0.72640
H         -2.33290       -2.49930       -0.80040
H         -0.78380       -2.64800        0.06920
H         -3.48350       -1.90720        1.32280
H         -1.93860       -2.05620        2.20650
