16
gdb 4027	3.78741	1.3202	0.99105	3.2795	67.1	-0.247	-0.0365	0.2105	1147.9676	0.128485	-417.057766	-417.048335	-417.04739	-417.092636	32.091
C         -0.08830        1.42120       -0.03260
N         -0.03540       -0.01890        0.09600
C          0.62510       -0.64160        1.10300
O          1.23350       -0.06390        1.99090
C          0.56820       -2.15550        1.07030
C          1.27450       -2.91490        2.15020
N         -0.09030       -2.67850        0.10610
O         -0.08850       -4.06820        0.15670
H          0.47760        1.84730        0.79660
H          0.35720        1.75410       -0.97700
H         -1.12000        1.78830        0.01350
H         -0.49870       -0.61190       -0.57480
H          0.56600       -3.54920        2.69260
H          2.02510       -3.58250        1.71500
H          1.74940       -2.21420        2.83510
H         -0.61190       -4.31040       -0.61580
