20
gdb 16551	2.84702	2.56654	2.09046	0.1786	77.56	-0.2311	0.0223	0.2534	789.5323	0.181982	-311.894825	-311.888616	-311.887671	-311.924571	26.792
C          0.00490        1.53180        0.00790
C          1.52540        1.79980       -0.00390
C          2.07420        1.48880        1.41470
C          1.80530        0.02180        1.82370
C          0.40420       -0.49460        1.42100
C         -0.00010       -0.01210        0.00190
C          1.12200       -0.28400       -0.99440
C          1.98140        0.73670       -0.99770
H         -0.50360        1.96270        0.87700
H         -0.46320        1.92300       -0.90080
H          1.78780        2.82080       -0.29680
H          3.15100        1.68770        1.46770
H          1.59560        2.17660        2.12360
H          2.55660       -0.61230        1.34330
H          1.95030       -0.09690        2.90300
H          0.39190       -1.58940        1.47800
H         -0.35280       -0.13760        2.13100
H         -0.96240       -0.44570       -0.28640
H          1.23000       -1.21510       -1.53950
H          2.91550        0.78700       -1.54590
