17
gdb 13795	3.80727	1.25824	1.20329	2.5919	64.98	-0.2478	0.0156	0.2634	1080.5228	0.141152	-401.01995	-401.011279	-401.010335	-401.053486	31.238
C          1.36570        1.14940        0.31790
C          0.25530        0.09610        0.21280
C          0.03380       -0.34430       -1.21260
O          1.01050       -1.21150       -1.81170
C         -0.31890       -1.71460       -1.63480
C         -0.52560       -2.85660       -0.66610
N          0.60530       -3.25890       -0.02530
O         -1.62580       -3.34690       -0.50470
H          2.31570        0.74960       -0.04970
H          1.12710        2.04000       -0.27350
H          1.50750        1.46520        1.35520
H          0.49400       -0.77120        0.83430
H         -0.68970        0.50770        0.58900
H         -0.28780        0.45280       -1.88690
H         -0.90290       -1.83480       -2.54600
H          1.49560       -2.89230       -0.31930
H          0.56240       -4.07650        0.56010
