15
gdb 17754	2.96801	2.78709	1.89638	2.4806	64.02	-0.2051	0.062	0.2671	741.0112	0.117655	-362.535612	-362.528842	-362.527898	-362.56607	26.641
C         -0.04580        1.47370        0.01200
C         -0.05260       -0.01250       -0.01810
C         -0.12180       -1.03930       -1.14500
C          0.80290       -1.93710       -0.29390
C         -0.17190       -1.96840        0.82910
N          0.89620       -0.90400        0.79630
C         -1.13790       -1.04610        0.01780
O         -2.48890       -0.85100        0.02100
H          0.91090        1.87180       -0.34260
H         -0.84220        1.86840       -0.62700
H         -0.21290        1.84170        1.03030
H         -0.28690       -0.91090       -2.20570
H          1.62900       -2.59440       -0.54140
H         -0.28890       -2.63820        1.67390
H         -2.90960       -1.56420       -0.47370
