16
gdb 11407	4.08283	1.57289	1.24576	2.3269	62.43	-0.2251	0.058	0.2831	976.2756	0.131562	-417.0787	-417.070888	-417.069944	-417.111031	28.445
C          0.06540        1.42470        0.04360
O          0.02510        0.00790        0.00190
C          0.55580       -0.54260       -1.15510
C          0.50220       -2.08310       -1.06880
N         -0.57930       -2.48230       -1.96870
C         -0.91560       -1.42320       -2.59040
N         -1.82860       -1.31610       -3.60450
O         -0.27720       -0.24840       -2.30010
H          1.09420        1.79690       -0.07150
H         -0.55910        1.86780       -0.74090
H         -0.31510        1.72490        1.02190
H          1.54070       -0.11010       -1.37550
H          1.45280       -2.53660       -1.37470
H          0.29960       -2.38410       -0.03660
H         -2.45240       -2.10550       -3.67180
H         -2.27740       -0.41660       -3.68400
