13
gdb 1938	8.81385	1.5332	1.42043	2.1494	60.68	-0.2472	-0.0263	0.2209	818.965	0.099791	-307.291354	-307.284574	-307.283629	-307.322289	24.887
O         -0.00020        0.02420       -0.15770
C         -0.01360        1.20230        0.04240
C         -1.13400        2.22800        0.27390
C         -0.03200        3.24620        0.74170
C          1.08430        2.25830        0.24400
C         -0.05800        4.56960        0.15530
C         -0.07970        5.66020       -0.35070
H         -1.61310        2.52580       -0.66360
H         -1.90630        1.95450        0.99610
H         -0.01830        3.31800        1.83300
H          1.88290        2.00620        0.94510
H          1.52970        2.56870       -0.70590
H         -0.09880        6.62660       -0.79040
