20
gdb 7361	3.77075	0.9791	0.89558	3.7203	71.8	-0.2392	-0.0092	0.23	1357.8547	0.17367	-386.159855	-386.149455	-386.14851	-386.196457	35.613
C         -0.08100        1.54560        0.09370
C          0.02070        0.00770       -0.01090
C          0.70250       -0.46540       -1.30330
C         -0.03820       -0.08210       -2.57890
O          0.62230       -0.72370       -3.66000
C          0.79460       -0.49150        1.21560
C         -0.03180       -0.86540        2.43320
O          2.00180       -0.56580        1.21590
H          0.91250        1.99760        0.01180
H         -0.71280        1.95500       -0.69870
H         -0.51430        1.85580        1.05020
H         -0.99680       -0.40330        0.03870
H          1.72410       -0.07570       -1.33820
H          0.79220       -1.55780       -1.28870
H         -1.09230       -0.40280       -2.51140
H         -0.03910        1.01030       -2.71320
H          0.19900       -0.44710       -4.47790
H         -0.77160       -0.09140        2.66370
H         -0.59290       -1.78350        2.22010
H          0.61820       -1.03270        3.29290
