20
gdb 13435	3.27522	1.25707	1.11231	2.7002	75.72	-0.2429	-0.0173	0.2257	1159.0373	0.174813	-349.005448	-348.995963	-348.995018	-349.040529	33.5
C         -0.24340        1.23340       -1.52890
C         -0.02610       -0.10580       -0.85430
C          1.34710       -0.64180       -0.49960
C          2.63090        0.10930       -0.78440
C          0.38240       -0.24370        0.60120
C          0.61450        0.95690        1.50570
C         -0.68560        1.43930        2.11490
O         -1.09060        2.57220        2.07320
H          0.47010        1.99540       -1.20760
H         -0.14930        1.13650       -2.61610
H         -1.24590        1.61960       -1.31560
H         -0.73120       -0.86170       -1.19240
H          1.45800       -1.71690       -0.62280
H          2.52530        1.19090       -0.67560
H          3.42940       -0.21170       -0.10610
H          2.97150       -0.08310       -1.80770
H         -0.07670       -1.07590        1.13120
H          1.27600        0.66070        2.33400
H          1.08170        1.80120        0.99650
H         -1.27570        0.64010        2.62390
