11
gdb 23840	5.92339	1.6261	1.27585	1.2995	57.62	-0.2304	-0.0913	0.1391	836.0531	0.073679	-434.862871	-434.856829	-434.855885	-434.893296	22.534
F          0.01320        0.09520       -0.28910
C         -0.02900        1.38770       -0.03530
N         -1.18740        1.94090        0.01940
N         -1.17550        3.26220        0.28150
C         -0.05030        4.04760        0.49030
N         -0.17460        5.29940        0.73230
C          1.17380        3.24310        0.38900
N          1.19240        1.97770        0.13930
H         -2.08300        3.70320        0.32590
H          0.73790        5.73240        0.86120
H          2.12500        3.75350        0.53510
