14
gdb 10367	2.37781	2.32056	1.42709	1.8669	69.78	-0.2594	-0.0044	0.255	890.6161	0.10422	-345.302452	-345.294428	-345.293484	-345.335291	29.218
C         -0.16550       -1.29750       -0.12720
C         -0.09700       -0.09980       -0.06340
C         -0.00950        1.35380        0.05230
C         -0.19360        1.91640        1.50490
C          1.27240        2.36050        1.37560
O          1.37310        1.81980        0.03900
C         -0.81730        2.01090       -0.97230
C         -1.48700        2.57540       -1.79440
H         -0.22480       -2.35570       -0.19870
H         -0.93090        2.71480        1.57520
H         -0.39690        1.14830        2.24970
H          1.44400        3.44240        1.38680
H          1.97760        1.87690        2.06030
H         -2.07330        3.06560       -2.53230
