18
gdb 16911	3.88732	1.92539	1.48568	1.5967	67.62	-0.2467	0.0877	0.3344	887.1591	0.154828	-384.931767	-384.924603	-384.923658	-384.9629	28.033
C          0.04430        1.50060        0.01980
C          0.04000       -0.01160       -0.01440
O          0.66570       -0.43910       -1.20130
C          0.51110       -1.83930       -1.39380
C          0.90680       -2.62000       -0.15730
C          2.23330       -2.36820        0.52410
C          0.95870       -1.85610        1.14300
O          0.73710       -0.47140        1.12610
H          1.07360        1.86240       -0.03750
H         -0.52090        1.89470       -0.82770
H         -0.40550        1.85390        0.95040
H         -0.99040       -0.41480        0.00530
H         -0.53840       -2.06420       -1.64670
H          1.13030       -2.09990       -2.25790
H          0.51290       -3.63110       -0.11820
H          2.74280       -3.20590        0.98730
H          2.87890       -1.61110        0.09270
H          0.58870       -2.32250        2.05220
