16
gdb 12043	3.96481	1.70954	1.53121	1.147	70.44	-0.252	0.0339	0.286	875.0489	0.129024	-346.533467	-346.525863	-346.524919	-346.564885	29.672
O         -0.11790        1.41560       -0.07470
C         -0.03780        0.00200       -0.00270
C          0.24010       -0.63070        1.42470
C         -1.14080       -1.28840        1.37260
C         -2.19730       -0.23530        1.21870
C         -1.42010       -0.66260        0.00420
C          0.85560       -0.52670       -1.02900
C          1.61640       -0.93180       -1.86790
H          0.77530        1.75720       -0.19230
H          1.07430       -1.33310        1.40650
H          0.39370        0.10680        2.21860
H         -1.36470       -2.29380        1.70420
H         -3.22270       -0.58980        1.23930
H         -2.05350        0.75680        1.63570
H         -1.89220       -1.08640       -0.87270
H          2.27960       -1.29440       -2.61400
