14
gdb 17594	2.81538	2.50601	1.88094	2.3371	56.48	-0.2373	0.06	0.2972	743.2451	0.105634	-419.59724	-419.59026	-419.589316	-419.627968	27.096
O         -0.32310        1.38110        0.00320
C         -0.10410        0.02030       -0.02360
C         -0.31220       -0.87860        1.18600
C         -1.19050       -1.08180       -0.01900
O         -2.55540       -0.96440        0.09050
C         -0.42420       -1.79670       -1.11130
O         -0.29100       -0.90970       -2.23420
C          0.60610       -0.73920       -1.12320
H          0.30190        1.78550        0.61390
H          0.42490       -1.61690        1.49110
H         -0.82720       -0.38290        2.00410
H         -2.88130       -0.57150       -0.72840
H         -0.30520       -2.85820       -1.29360
H          1.66570       -0.84420       -1.32590
