17
gdb 12273	4.0122	1.48036	1.16163	2.6648	67.42	-0.2309	0.0261	0.257	1048.7931	0.141189	-401.005462	-400.99672	-400.995776	-401.039124	29.886
C          0.22170        1.34200       -0.13870
O         -0.26330        0.05090        0.19670
C          0.50260       -0.57410        1.18270
C          0.07900       -2.04320        1.44880
N          1.43600       -2.44010        1.06120
C          2.06950       -3.72720        0.94870
C          1.86900       -1.18160        0.73180
O          2.90190       -0.77300        0.26270
H          1.24990        1.29950       -0.51620
H         -0.43820        1.73550       -0.91480
H          0.19230        2.01540        0.73180
H          0.58640        0.04520        2.08870
H         -0.18780       -2.29130        2.48160
H         -0.70210       -2.38840        0.76350
H          1.53800       -4.37710        0.24250
H          3.08570       -3.56470        0.58140
H          2.11940       -4.23660        1.91860
