15
gdb 17713	6.84325	1.51176	1.45571	3.6514	66.16	-0.2493	-0.0148	0.2345	870.3511	0.118683	-362.575774	-362.569251	-362.568307	-362.606275	25.16
C         -0.15830        1.59350        0.01950
C         -0.01730        0.08880       -0.05610
C          0.90870       -0.58980       -1.06390
C          2.15140       -0.22670       -0.17490
N          1.02940       -0.54850        0.87590
C          1.05960       -1.79620       -0.07040
C          2.57260       -1.68810       -0.15450
O          3.54650       -2.37010       -0.22370
H          0.79560        2.10880       -0.12530
H         -0.85440        1.94930       -0.74760
H         -0.55820        1.88550        0.99610
H         -0.99380       -0.39320        0.07560
H          0.87510       -0.63960       -2.15680
H          2.71820        0.70010       -0.13850
H          0.37170       -2.62640        0.07990
