11
gdb 3810	8.14385	2.19516	1.74822	0.391	47.64	-0.2679	-0.0206	0.2474	664.3404	0.079538	-376.562796	-376.556964	-376.55602	-376.59265	20.078
C         -0.02240        1.38260        0.02220
O          0.01380       -0.04890       -0.02150
C          0.61610       -0.57460       -1.07490
N          1.16300        0.12050       -2.04690
O          1.65420       -0.88850       -2.89850
C          1.33600       -2.04640       -2.32310
N          0.69860       -1.94170       -1.20260
H          0.99190        1.79240        0.03490
H         -0.55620        1.78020       -0.84600
H         -0.54790        1.63660        0.94220
H          1.63400       -2.94950       -2.83600
