15
gdb 2224	3.60653	2.89174	2.12636	1.1593	56.82	-0.2254	0.0633	0.2887	668.9154	0.124238	-345.601318	-345.59458	-345.593635	-345.631523	25.599
C         -0.01640        1.53690        0.00420
C          0.06980        0.03040        0.10050
C          1.33290       -0.76110       -0.15740
O          2.48420       -0.04340        0.30630
C          2.00050       -0.08570        1.67510
C          0.70000       -0.74850        1.22540
O         -0.03950       -1.65250        1.95710
H          0.95450        1.99500        0.20870
H         -0.31660        1.84030       -1.00400
H         -0.74930        1.94270        0.70930
H         -0.80250       -0.51250       -0.26150
H          1.47670       -1.50720       -0.93040
H          2.63120       -0.74730        2.28390
H          1.94910        0.90520        2.14050
H          0.53890       -2.37680        2.22350
