22
gdb 6839	3.17352	1.39188	1.26092	1.7721	77.76	-0.238	0.0795	0.3175	1126.3272	0.198354	-350.204559	-350.195027	-350.194083	-350.238635	35.194
C         -0.11110        1.64830       -0.02760
C         -0.10510        0.15600        0.32420
C         -1.41730       -0.52970       -0.03660
C         -1.72620       -0.79670       -1.52390
O         -2.01410       -2.18340       -1.27060
C         -1.59270       -2.07540        0.12320
C         -0.32710       -2.89540        0.35300
C         -2.71620       -2.50700        1.05610
H          0.83990        2.12190        0.23430
H         -0.27410        1.80350       -1.10000
H         -0.90730        2.17800        0.50700
H          0.72830       -0.33410       -0.19300
H          0.08630        0.03630        1.39850
H         -2.24250       -0.00360        0.45560
H         -2.58380       -0.27050       -1.95920
H         -0.86260       -0.67290       -2.19420
H          0.45850       -2.62710       -0.35750
H          0.05990       -2.75530        1.36790
H         -0.55080       -3.95850        0.21810
H         -2.93270       -3.57280        0.92890
H         -2.43830       -2.33770        2.10270
H         -3.63070       -1.94580        0.84430
