17
gdb 10905	3.19741	2.00086	1.42031	3.5934	69.32	-0.2298	-0.0133	0.2165	914.8578	0.141007	-363.843143	-363.83505	-363.834106	-363.875354	29.882
C         -0.03630        1.62630       -0.06960
C          0.02550        0.10540       -0.05200
C          0.73060       -0.64630       -1.19700
N          2.13020       -0.19700       -1.17040
C          1.70250       -1.32740       -0.26810
C          2.37590       -2.66270       -0.28180
C          1.03340       -0.61940        0.89590
O          1.11620       -0.72180        2.08540
H          0.93360        2.04240       -0.35090
H         -0.78880        1.98400       -0.78010
H         -0.30250        2.00540        0.92180
H         -0.96200       -0.33010        0.14820
H          0.27930       -1.05620       -2.09200
H          2.61810       -0.64180       -1.94920
H          2.51600       -3.02410       -1.30640
H          3.35950       -2.60980        0.19670
H          1.78120       -3.40280        0.26250
