15
gdb 3219	3.49249	3.22765	2.23556	1.8625	55.89	-0.2503	0.0766	0.3269	642.279	0.124718	-345.61264	-345.606036	-345.605092	-345.642905	24.942
C         -0.16170        1.55700       -0.01850
C         -0.00970        0.04390       -0.01900
C          0.73880       -0.60990       -1.18720
O          2.09990       -0.14610       -1.13210
C          1.71670       -1.25340       -0.29630
C          1.08000       -0.60800        0.94420
O          1.90450        0.24060        1.69170
H          0.77760        2.04500       -0.29220
H         -0.92620        1.87490       -0.73520
H         -0.45330        1.91770        0.97230
H         -0.97420       -0.44860        0.14370
H          0.37190       -0.92690       -2.15670
H          2.28770       -2.16910       -0.39950
H          0.63680       -1.32550        1.63860
H          2.42660        0.73970        1.05060
