15
gdb 9564	4.47941	1.30989	1.22249	1.2023	76.18	-0.2414	0.0135	0.255	1015.1162	0.115847	-325.432756	-325.424265	-325.423321	-325.465258	31.594
C         -0.05190        1.55040       -0.09330
C         -0.01850        0.03890        0.00780
N          1.30550       -0.58270       -0.20250
C          0.70940       -0.64510        1.14860
C          1.34450        0.09390        2.20310
C          1.85000        0.70040        3.10980
C         -1.17400       -0.65170       -0.50840
C         -2.13250       -1.21980       -0.96210
H          0.85760        1.97270        0.33650
H         -0.12130        1.85420       -1.14170
H         -0.91810        1.95130        0.44070
H          1.19490       -1.48620       -0.65750
H          0.28200       -1.59620        1.45640
H          2.30470        1.23670        3.90570
H         -2.98130       -1.72080       -1.35760
