18
gdb 11303	3.39487	1.64295	1.30792	3.0627	68.37	-0.2388	-0.0201	0.2187	986.6481	0.153253	-384.961313	-384.953182	-384.952238	-384.994446	29.305
C         -0.11420        1.46470        0.05770
C          0.11110       -0.03500        0.09750
C          0.65610       -0.66540       -1.19250
C          1.37370       -1.93510       -0.69140
C          1.61410       -1.61970        0.82460
O          1.12530       -0.32270        1.06600
C          0.92470       -2.67230        1.68180
O         -0.06720       -2.48880        2.33520
H          0.80990        1.98360       -0.21570
H         -0.88670        1.71450       -0.67600
H         -0.43870        1.82990        1.03570
H         -0.81920       -0.54350        0.39340
H         -0.12840       -0.88260       -1.92140
H          1.37180        0.02080       -1.65700
H          0.74550       -2.82320       -0.81420
H          2.30990       -2.12520       -1.21890
H          2.68330       -1.63700        1.07450
H          1.41560       -3.67490        1.63250
