20
gdb 6469	3.68301	1.28872	1.17456	1.6259	70.83	-0.2539	0.0703	0.3242	1099.5284	0.175377	-386.125256	-386.11614	-386.115195	-386.158486	34.305
C         -0.57940        1.72040        0.03520
C         -0.05390        0.28830        0.03890
C         -1.18530       -0.70580       -0.21550
O         -1.71660       -0.45880       -1.51000
C          1.18470       -0.00720       -0.86610
C          1.80700       -0.82000        0.29950
O          3.18700       -0.73540        0.55530
C          0.80130       -0.14470        1.27120
H          0.23280        2.43750        0.19280
H         -1.06520        1.95210       -0.91660
H         -1.31630        1.87000        0.83390
H         -0.80750       -1.73750       -0.13790
H         -1.95720       -0.58060        0.56240
H         -2.43430       -1.07890       -1.66680
H          1.00330       -0.51290       -1.81660
H          1.76260        0.90410       -1.05790
H          1.60350       -1.88930        0.19570
H          3.41770        0.19680        0.62810
H          1.25430        0.72460        1.76090
H          0.32810       -0.76580        2.03800
