11
gdb 2812	4.14382	2.33903	1.62932	1.6949	58.71	-0.2591	0.0014	0.2605	721.8745	0.075398	-306.015194	-306.008361	-306.007417	-306.045901	24.719
C         -0.18370       -1.20990        0.00870
C         -0.06470       -0.01450        0.01750
C          0.03190        1.41780       -0.00160
O          0.53020        2.07510        1.16840
C          1.34120        2.13000       -0.00990
C          2.59630        1.43300        0.00070
C          3.66450        0.88330       -0.01580
H         -0.27740       -2.26800        0.01020
H         -0.80350        1.93310       -0.47580
H          1.35790        3.10880       -0.48950
H          4.60390        0.38760       -0.02270
