13
gdb 18421	3.4078	1.9939	1.60385	3.4757	63.97	-0.2496	-0.0065	0.2431	801.3884	0.095131	-361.415296	-361.408523	-361.407579	-361.446263	25.781
O          0.01470        0.05800        0.11800
C          0.03190        1.24910        0.03460
N         -1.00560        2.21240        0.04890
C         -0.05530        3.31810       -0.04350
C          0.95920        3.29790        1.07700
C          0.64120        2.86060        2.40590
C          0.35970        2.50360        3.51900
C          1.09140        2.33530       -0.12690
H         -1.74810        2.18540        0.73960
H         -0.26010        4.18400       -0.65880
H          1.68600        4.10660        1.02310
H          0.12260        2.17850        4.50190
H          1.97200        2.33070       -0.75290
