19
gdb 15767	2.92675	1.37057	1.05416	1.6137	80.2	-0.231	0.0497	0.2807	1193.9295	0.163535	-327.873147	-327.863654	-327.862709	-327.909256	33.156
C          0.95450        0.95990        0.49770
C          0.45720       -0.39870        0.32740
C          0.03220       -1.51970        0.19970
C         -0.47480       -2.88920        0.02390
C         -1.82470       -2.89110       -0.70960
N          0.43360       -3.82140       -0.67060
C          1.26120       -3.31620       -1.76130
C          1.87030       -3.70280       -0.45770
H          2.04550        0.97540        0.59560
H          0.68890        1.59410       -0.35510
H          0.53630        1.42310        1.39820
H         -0.62680       -3.32310        1.02130
H         -2.18850       -3.91750       -0.80070
H         -2.55980       -2.29280       -0.16530
H         -1.71410       -2.46930       -1.71270
H          1.33880       -3.96750       -2.62730
H          1.22520       -2.25140       -1.98040
H          2.23030       -2.88900        0.16800
H          2.40300       -4.64350       -0.34910
