14
gdb 13163	3.74434	1.54823	1.21488	1.2821	58.48	-0.2578	-0.1045	0.1533	952.0069	0.105424	-419.663176	-419.65535	-419.654406	-419.696944	26.107
O         -0.87560        1.68850        0.57710
C          0.01450        1.16020       -0.03600
C          1.27880        1.90670       -0.48640
O          2.13600        1.28420       -1.06920
C          1.35150        3.36540       -0.12660
C          1.74820        3.65320        1.35320
O          2.96590        4.29060        0.94010
C          2.66350        4.09590       -0.45950
H          0.01080        0.08970       -0.32920
H          0.42570        3.86050       -0.42400
H          1.07030        4.33380        1.88010
H          1.93120        2.77250        1.98130
H          3.41190        3.47600       -0.96310
H          2.54800        5.04740       -0.99020
