24
gdb 7006	2.47218	1.77121	1.42831	0.0667	84.93	-0.2734	0.0773	0.3506	1071.1175	0.221765	-314.279853	-314.270115	-314.269171	-314.313148	37.573
C         -0.13610        1.58700       -0.06930
C          0.05850        0.07930        0.00770
C          1.10320       -0.60500       -0.91150
C          1.40180       -1.60790        0.23290
C          2.82000       -2.12580        0.42640
C          0.75890       -0.59110        1.24620
C          1.78950        0.31950        1.92030
C         -0.17400       -1.19400        2.29380
H          0.80970        2.12750        0.04000
H         -0.56570        1.87110       -1.03680
H         -0.81810        1.94670        0.70980
H         -0.91250       -0.41110       -0.13450
H          0.75810       -1.00740       -1.86790
H          1.95960        0.05100       -1.10530
H          0.72150       -2.46350        0.13960
H          3.54680       -1.31030        0.49910
H          2.90790       -2.73320        1.33460
H          3.11850       -2.75630       -0.41890
H          2.48130        0.77480        1.20520
H          1.29460        1.13290        2.46220
H          2.38880       -0.24150        2.64570
H          0.38260       -1.78810        3.02890
H         -0.71200       -0.41320        2.84540
H         -0.92000       -1.84960        1.83140
