13
gdb 20635	4.06706	1.87377	1.29301	2.8592	66.38	-0.2569	-0.0927	0.1642	885.6472	0.094338	-394.745667	-394.738527	-394.737583	-394.777141	25.928
C          0.01000        1.49590        0.01260
C         -0.06290        0.00440       -0.02720
C         -1.14880       -0.74660        0.20270
C         -1.07540       -2.19360        0.12990
N         -2.08000       -2.94070        0.34070
O          0.16310       -2.70580       -0.18450
N          1.31570       -1.83420       -0.42570
N          1.16720       -0.62290       -0.34400
H          0.74560        1.82250        0.75540
H          0.34050        1.88780       -0.95530
H         -0.96040        1.93020        0.25900
H         -2.11290       -0.31920        0.44860
H         -1.82750       -3.92540        0.24300
