11
gdb 3856	3.76089	3.57458	1.84744	3.3198	48.39	-0.2176	0.0039	0.2215	621.7331	0.080403	-372.742461	-372.736144	-372.7352	-372.772777	22.468
N          0.21920        1.44770        0.13880
C          0.01320        0.06600        0.00710
C         -1.09000       -0.76280       -0.01010
O         -2.38460       -0.38830        0.07390
N         -0.69590       -2.04990       -0.11220
N          0.61650       -2.08940       -0.17050
N          1.04110       -0.82480       -0.08540
H         -0.52240        1.86580        0.68940
H          0.23750        1.92340       -0.75880
H         -2.90840       -1.19930        0.07450
H          2.02820       -0.62040       -0.08640
