20
gdb 11062	3.23294	2.22935	1.8881	1.4775	73.51	-0.2336	0.0805	0.3141	827.2977	0.179544	-349.030187	-349.023218	-349.022274	-349.060763	28.659
C          0.02350        1.47800        0.07580
C         -0.02730       -0.02880       -0.03930
C          0.63810       -0.64900       -1.29250
C          0.10380       -2.11680       -1.26890
C         -0.75800       -2.13970        0.01600
C          0.18480       -1.96310        1.21640
O          0.63180       -0.60100        1.11380
C         -1.39520       -0.73620       -0.01570
H          1.06040        1.82820        0.08510
H         -0.48890        1.94680       -0.76980
H         -0.45370        1.80880        1.00270
H          0.34400       -0.12070       -2.20520
H          1.72560       -0.58980       -1.20470
H         -0.50990       -2.33180       -2.14900
H          0.90540       -2.86050       -1.24050
H         -1.43220       -2.99310        0.10250
H         -0.32930       -2.10780        2.17680
H          1.04580       -2.64330        1.18310
H         -1.97790       -0.49030        0.87650
H         -1.99650       -0.55210       -0.91050
