16
gdb 18488	4.97536	1.35229	1.20394	5.266	68.3	-0.2473	0.031	0.2783	995.6672	0.131707	-342.748744	-342.741575	-342.740631	-342.780626	26.705
N         -0.00730       -1.25680       -0.24130
C         -0.03350       -0.10790       -0.12230
C         -0.06650        1.34720        0.01530
C          1.33250        1.96340        0.12880
C          1.46680        3.49110        0.38000
C          2.28590        3.11090        1.61220
C          1.50120        2.25400        2.51530
N          2.14620        1.61590        1.35010
H         -0.56800        1.76880       -0.86420
H         -0.68730        1.60450        0.87980
H          1.91830        1.65340       -0.73940
H          2.03330        3.99920       -0.40140
H          0.55050        4.05780        0.57500
H          3.23890        3.54630        1.89230
H          1.95770        1.94390        3.44960
H          0.41950        2.35930        2.56190
