18
gdb 14527	3.76251	1.67891	1.37117	3.2829	67.11	-0.2435	0.0773	0.3208	949.1958	0.152757	-384.900146	-384.892095	-384.891151	-384.932949	29.38
C          0.37450        1.39270        0.79290
C         -0.03140        0.13590        0.05460
C          0.56510       -0.21010       -1.24250
O          0.98020       -0.87090       -0.04000
C         -1.40520       -0.39370        0.41040
C         -2.63250        0.43750       -0.03610
C         -3.05770       -0.85750       -0.75470
O         -1.82510       -1.51700       -0.39190
H          1.39630        1.67250        0.52670
H         -0.29020        2.22980        0.55460
H          0.33810        1.23160        1.87620
H          0.00620       -0.83530       -1.93390
H          1.30380        0.45640       -1.68680
H         -1.41310       -0.65750        1.47850
H         -3.29090        0.79310        0.75690
H         -2.38950        1.26610       -0.70440
H         -3.92910       -1.36420       -0.32180
H         -3.18640       -0.79700       -1.84140
