18
gdb 6613	4.36362	1.43541	1.33393	1.3194	68.2	-0.2549	0.0683	0.3232	980.9146	0.151568	-384.909549	-384.901437	-384.900493	-384.941854	31.335
C         -0.20500        1.54390       -0.03880
C         -0.02120        0.03120       -0.01440
O         -1.25170       -0.64720       -0.17530
C          1.16420       -0.47020       -0.91570
C          1.98750       -0.64020        0.36220
C          3.27370       -1.28550        0.60890
O          3.15090        0.14530        0.59840
C          0.74140       -0.49350        1.23700
H          0.74380        2.05990        0.13690
H         -0.58490        1.87280       -1.01460
H         -0.91840        1.85230        0.73170
H         -1.70070       -0.27660       -0.94300
H          0.91620       -1.42420       -1.38900
H          1.56730        0.22380       -1.65760
H          3.48170       -1.72820        1.58270
H          3.83620       -1.71110       -0.22180
H          0.82540        0.18110        2.09210
H          0.33400       -1.45500        1.56010
