17
gdb 18279	4.27128	1.62082	1.3412	3.7963	63.91	-0.2365	0.0682	0.3047	926.6389	0.143928	-400.966977	-400.959777	-400.958833	-400.998551	27.376
O          0.11870        1.32770       -0.16960
C          0.07990       -0.07550        0.00770
C         -1.35480       -0.58030        0.11620
O         -2.03280       -0.14980       -1.07370
C         -3.01780       -1.10300       -1.46110
C         -2.58160       -2.41450       -0.84320
N         -1.16830       -2.72770       -1.13090
C         -1.53570       -2.08480        0.15040
H         -0.45740        1.51140       -0.92090
H          0.57230       -0.60870       -0.81740
H          0.62200       -0.29380        0.93450
H         -1.83540       -0.13610        1.00330
H         -4.01410       -0.82560       -1.08160
H         -3.04980       -1.12150       -2.55530
H         -3.29950       -3.21380       -0.69390
H         -1.00640       -3.71880       -0.96930
H         -1.42510       -2.62460        1.08450
