17
gdb 18324	3.25841	2.33196	1.51518	3.8499	68.29	-0.237	0.0207	0.2577	841.8728	0.145125	-363.890747	-363.884078	-363.883134	-363.921742	25.626
O         -0.14590        0.01960        0.51960
C         -0.11610        1.15010        0.09090
C         -1.27160        1.95910       -0.52840
C         -0.97470        3.40430       -0.06850
C          0.56800        3.42150        0.02390
C          1.31960        3.70300        1.36040
C          1.82480        2.22940        1.30960
N          0.97020        2.00300        0.12170
H         -1.24000        1.87010       -1.62020
H         -2.22770        1.56100       -0.18720
H         -1.36900        4.16530       -0.74510
H         -1.41370        3.57950        0.91990
H          1.01930        3.92400       -0.83940
H          2.08960        4.47530        1.32410
H          0.64830        3.90530        2.19860
H          2.89050        2.11900        1.09130
H          1.56230        1.57890        2.14810
