11
gdb 65	8.30095	3.97615	2.93764	2.7429	42.87	-0.2704	0.0278	0.2983	440.0738	0.091554	-227.338075	-227.332253	-227.331309	-227.366638	19.946
C         -0.01060        1.54130        0.00720
C         -0.00200        0.00760        0.03860
N          0.76270       -0.47100        1.19250
C         -1.38540       -0.52100       -0.00190
N         -2.45680       -0.95640        0.00690
H          1.02040        1.90110        0.00390
H         -0.52870        1.91190       -0.88030
H         -0.51850        1.94150        0.89010
H          0.50420       -0.35810       -0.86280
H          0.30070       -0.18360        2.05160
H          0.78150       -1.48670        1.20430
