13
gdb 15207	2.64181	1.99646	1.54751	4.4648	63.48	-0.2802	-0.0266	0.2537	847.9213	0.094967	-357.62797	-357.620208	-357.619264	-357.660226	27.007
C         -0.21650        1.50610       -0.05110
N          0.03030        0.06510        0.02830
C          1.35670       -0.44910       -0.29900
C          2.43670        0.43480       -0.66780
N          3.29030        1.13490       -1.01090
C          0.83940       -0.45940        1.12420
C          1.42660        0.41480        2.11150
N          1.85750        1.10650        2.93150
H          0.63280        2.12540        0.26240
H         -0.46930        1.74750       -1.08600
H         -1.07630        1.73540        0.58250
H          1.36000       -1.39330       -0.83750
H          0.50060       -1.41040        1.52710
