16
gdb 10844	4.6293	1.47849	1.1743	3.827	60.92	-0.2623	0.0085	0.2707	974.7775	0.13133	-420.91601	-420.908518	-420.907574	-420.947987	27.732
O          0.04420        1.41670        0.12190
C          0.01570        0.00380        0.02460
C         -1.43360       -0.45460        0.03210
C         -1.47660       -1.97740       -0.12030
C         -0.54790       -2.56940       -1.17510
O         -0.69790       -3.67160       -1.62490
O          0.54470       -1.85170       -1.54850
C          0.65540       -0.44600       -1.29010
H          0.95820        1.69960        0.22880
H          0.54920       -0.46290        0.86860
H         -1.93010       -0.14140        0.95490
H         -1.95560        0.03690       -0.79760
H         -1.17840       -2.45550        0.82230
H         -2.48150       -2.34380       -0.33960
H          0.18780        0.11090       -2.11210
H          1.72900       -0.23300       -1.30420
