10
gdb 1022	9.42679	2.00693	1.65466	7.3289	54.88	-0.2538	-0.0199	0.2339	670.6291	0.070003	-318.40967	-318.404343	-318.403399	-318.438795	19.222
N          0.02820       -1.14090       -0.00390
C          0.01710        0.01640        0.00250
C         -0.02860        1.43620        0.01100
C         -1.15970        2.22170        0.03070
N         -0.69610        3.50810        0.03160
C          0.67080        3.45360        0.01280
N          1.10900        2.22140        0.00000
H         -2.20820        1.97780        0.04350
H         -1.26310        4.34020        0.04380
H          1.28290        4.34270        0.00940
