10
gdb 21506	5.38989	1.65731	1.26755	3.882	49.65	-0.2867	-0.0934	0.1933	839.7608	0.059976	-446.74653	-446.739811	-446.738866	-446.778053	23.253
N         -0.05790        1.32530        0.00760
C          0.05490       -0.02660        0.00130
O          1.09510       -0.64500       -0.01010
C         -1.26900       -0.73500        0.00950
N         -2.43540       -0.15370        0.02130
O         -3.32850       -1.15330        0.02450
N         -2.62240       -2.37840        0.01520
N         -1.40060       -2.11180        0.00500
H          0.78630        1.87340        0.00230
H         -0.95290        1.78500        0.01660
