15
gdb 23892	2.69064	1.77942	1.37788	1.9443	50.84	-0.2707	0.0813	0.352	921.658	0.113313	-531.304411	-531.295729	-531.294785	-531.338148	30.178
C         -0.49490        1.07730       -0.03190
O          0.50100        0.07820        0.11100
C          0.94740       -0.52100       -1.08200
C          2.39290       -0.96340       -0.88380
C          0.05900       -1.71950       -1.44380
F         -1.22460       -1.35540       -1.60550
F          0.46360       -2.27470       -2.59970
F          0.09170       -2.66640       -0.50130
H         -0.17770        1.85550       -0.74200
H         -1.45440        0.66680       -0.36360
H         -0.62150        1.53130        0.95350
H          0.87290        0.17950       -1.92780
H          2.45930       -1.63710       -0.02630
H          2.76600       -1.48000       -1.77090
H          3.01640       -0.08850       -0.69000
