13
gdb 1944	9.57352	1.4315	1.31895	0.4688	56.48	-0.2604	-0.0344	0.226	847.3086	0.099769	-344.469516	-344.462773	-344.461829	-344.500826	23.669
O          0.48810       -0.26410       -0.23170
C          0.20390        0.88530       -0.02130
C          1.18090        2.02480        0.05910
C          0.84140        3.26510       -0.83720
C          1.05930        4.14850        0.40260
O          1.24990        5.31510        0.56550
C          1.05940        2.92610        1.33550
H         -0.85820        1.19810        0.13620
H          2.19320        1.65240       -0.10080
H          1.47120        3.45580       -1.70830
H         -0.20940        3.28070       -1.15250
H          0.09070        2.81400        1.83840
H          1.85170        2.86420        2.08410
