13
gdb 2416	5.25565	2.40476	2.02173	2.3367	49.73	-0.2539	0.0494	0.3034	639.0396	0.101437	-381.506605	-381.50064	-381.499696	-381.536099	23.166
O          0.13560        1.42700       -0.08910
C          0.10650        0.04160       -0.06990
C          0.02850       -0.67300        1.31240
O         -1.35870       -0.15340        1.44800
C         -1.28020       -0.66390        0.05030
C         -0.59520       -1.91980        0.61730
O          0.14140       -2.69520       -0.28280
H         -0.50680        1.70600        0.57930
H          0.81000       -0.34790       -0.80410
H          0.67650       -0.59440        2.18630
H         -2.17460       -0.57430       -0.56640
H         -1.24330       -2.49670        1.28440
H          0.58200       -3.39670        0.20650
