18
gdb 19746	4.61972	1.99766	1.97114	1.654	70.08	-0.2281	0.0922	0.3203	769.489	0.157933	-347.794753	-347.789034	-347.78809	-347.824214	24.226
C         -0.02070        1.50330       -0.01510
C          1.51240        1.80560       -0.02880
C          2.05300        0.37640        0.01780
C          1.15200       -0.44800       -0.96780
C          1.44000       -1.89070       -0.56450
O          1.42870       -1.76820        0.87390
C          1.15650       -0.38020        1.04270
C          0.02250       -0.02400        0.03590
H         -0.52700        1.93300        0.85480
H         -0.53140        1.87530       -0.90840
H          1.82830        2.34050       -0.92940
H          1.83250        2.39830        0.83380
H          3.13430        0.22870        0.03220
H          1.09570       -0.21040       -2.03140
H          0.66810       -2.60000       -0.88810
H          2.41780       -2.25500       -0.90360
H          1.11700       -0.13190        2.10390
H         -0.92140       -0.57100        0.06820
