15
gdb 10291	2.62172	1.87341	1.13442	4.4967	63.86	-0.2528	0.0124	0.2652	996.7847	0.117534	-399.798652	-399.790089	-399.789145	-399.831983	31.275
N          0.05730        1.18930        0.38180
C          0.01060       -0.02470       -0.20620
O          0.92600       -0.46900       -0.88580
C         -1.28910       -0.83620       -0.00750
C         -0.93470       -2.34650        0.15710
O         -0.37270       -2.87730       -1.00980
C         -2.13140       -0.35480        1.07800
C         -2.81420        0.02350        1.99370
H          0.89640        1.73750        0.28490
H         -0.67580        1.49310        1.00070
H         -1.83560       -0.75420       -0.95720
H         -0.27660       -2.45530        1.03420
H         -1.85710       -2.89620        0.36490
H          0.36770       -2.28820       -1.22970
H         -3.43300        0.34570        2.79490
