18
gdb 14505	3.27581	2.10136	1.57155	2.5407	72.36	-0.2437	-0.0216	0.2221	861.554	0.153447	-347.757642	-347.750164	-347.749219	-347.789329	28.629
C         -0.02220        1.63160       -0.23220
C          0.02190        0.10580       -0.08750
C         -1.36860       -0.39090       -0.42310
O         -2.10850       -0.98000        0.32420
C          1.22770       -0.70690       -0.71320
C          2.11200       -0.16910        0.45060
C          0.76110       -0.57950        1.11020
C          0.85020       -1.87530        0.24390
H          0.96000        2.09870       -0.15450
H         -0.43980        1.91180       -1.20640
H         -0.66640        2.07170        0.53690
H         -1.70200       -0.12220       -1.45530
H          1.48980       -0.76950       -1.77100
H          2.97070       -0.79390        0.70830
H          2.39190        0.88380        0.45010
H          0.48710       -0.51050        2.16290
H         -0.07480       -2.41840        0.05630
H          1.66600       -2.55640        0.49650
