16
gdb 4919	6.68392	1.21765	1.03923	0.8689	67.97	-0.1616	0.071	0.2326	1096.6561	0.130996	-379.939887	-379.931549	-379.930605	-379.972288	30.745
C         -0.00450        1.40950        0.10340
N          0.02560       -0.01430       -0.17240
C         -1.18830       -0.70550       -0.07060
C         -2.45350       -0.17080        0.01170
N         -3.35170       -1.24010        0.02200
C         -2.66110       -2.40620       -0.03610
O         -3.37220       -3.56350       -0.02440
C         -1.31480       -2.13560       -0.09760
H          1.01120        1.81030        0.05610
H         -0.60020        1.91800       -0.66350
H         -0.43970        1.66250        1.08550
H          0.77020       -0.48520        0.32290
H         -2.80240        0.84530        0.05270
H         -4.35210       -1.17710        0.07550
H         -2.75380       -4.29590       -0.09970
H         -0.51410       -2.85570       -0.16980
