18
gdb 9262	3.88921	1.03708	0.90146	2.079	70.89	-0.2577	0.0271	0.2848	1296.8855	0.150435	-384.889269	-384.879619	-384.878675	-384.924638	33.948
C          0.00840        1.50880        0.18710
C         -0.03880       -0.01480        0.06610
C         -1.47040       -0.54630       -0.04350
O         -2.11580       -0.07120       -1.20840
O          0.59760       -0.48630       -1.12510
C          2.01070       -0.41860       -1.12280
C          2.53440       -1.07990       -2.31130
C          2.98980       -1.61590       -3.28440
H          1.03340        1.88950        0.18910
H         -0.53930        1.96280       -0.64190
H         -0.46080        1.82300        1.12500
H          0.44470       -0.47820        0.94260
H         -1.43960       -1.64630       -0.02240
H         -2.06180       -0.20550        0.81260
H         -1.53110       -0.29570       -1.94240
H          2.36270        0.62440       -1.10400
H          2.41370       -0.90640       -0.21910
H          3.38870       -2.09240       -4.14570
