17
gdb 7320	4.06482	1.23973	1.03238	1.8597	68.32	-0.2337	-0.0193	0.2144	1152.691	0.141793	-397.231362	-397.222097	-397.221153	-397.265572	33.241
C         -0.18710        1.63570        0.29390
C          0.23420        0.17940        0.05050
N          0.83270       -0.41640        1.23440
C          0.08400       -1.02830        2.07250
N         -1.25780       -1.26810        2.04130
C          0.72760       -1.64650        3.31220
N          2.06710       -1.51780        3.33800
O          0.04610       -2.19080        4.16770
H          0.66850        2.22500        0.63570
H         -0.57460        2.08660       -0.62520
H         -0.96460        1.70430        1.06210
H         -0.62620       -0.40270       -0.31930
H          0.98440        0.15800       -0.74790
H         -1.86760       -0.71910        1.46320
H         -1.62920       -1.67680        2.88710
H          2.50250       -1.01860        2.57690
H          2.58960       -1.86180        4.12430
