17
gdb 8782	4.4633	1.28127	1.02715	3.9664	70.68	-0.2356	-0.0049	0.2307	1128.7182	0.141405	-397.210059	-397.200806	-397.199862	-397.244004	32.402
C          0.03680        1.39570        0.25210
N         -0.00780       -0.05040        0.21520
C         -1.11630       -0.63010       -0.02080
N         -2.36400       -0.03040       -0.16090
N         -1.12660       -2.03590       -0.13100
C          0.15400       -2.71410       -0.32990
C         -2.24850       -2.79950        0.12420
O         -2.28270       -4.00860        0.07050
H          1.07830        1.72420        0.20320
H         -0.49540        1.87640       -0.58740
H         -0.38600        1.79820        1.18460
H         -2.33380        0.97730       -0.18790
H         -2.96830       -0.41690       -0.87140
H          0.78890       -2.60350        0.55200
H         -0.06410       -3.76550       -0.50890
H          0.67480       -2.27460       -1.18200
H         -3.12340       -2.18930        0.39740
