18
gdb 15007	4.40961	1.489	1.19011	1.2242	65.02	-0.2376	0.0933	0.3308	1021.3122	0.154413	-422.064151	-422.05635	-422.055406	-422.096388	28.678
C         -0.05520        1.37770       -0.00450
O         -0.02570       -0.04040       -0.05270
C          0.61880       -0.55710       -1.15950
C          0.71420       -2.07260       -0.99780
O          1.27640       -2.66000       -2.15950
C          0.52650       -2.33750       -3.32020
C          0.43730       -0.82500       -3.48760
O         -0.13300       -0.24100       -2.32530
H          0.96240        1.79510       -0.02230
H         -0.62460        1.79480       -0.84150
H         -0.53650        1.65080        0.93660
H          1.63450       -0.12570       -1.27240
H          1.36670       -2.32930       -0.16000
H         -0.29700       -2.46100       -0.80050
H          1.04270       -2.79840       -4.16770
H         -0.48910       -2.75990       -3.25000
H          1.44410       -0.41480       -3.67010
H         -0.20850       -0.55460       -4.32830
