14
gdb 7229	4.80769	1.30588	1.0334	1.7839	61.28	-0.2598	-0.0766	0.1831	1067.1142	0.106233	-415.915014	-415.906784	-415.90584	-415.948311	28.253
C         -0.11630        1.59190        0.05840
C         -0.07530        0.09010        0.00200
O          0.95080       -0.55820       -0.02040
C         -1.40970       -0.64130       -0.02750
N         -2.49730        0.01510       -0.00540
N         -1.22510       -2.02550       -0.07810
C         -2.21180       -2.97530       -0.11490
O         -3.40140       -2.74670       -0.10860
H          0.90110        1.98280        0.06850
H         -0.67320        1.98330       -0.79760
H         -0.66370        1.91690        0.94800
H         -3.29960       -0.61820       -0.03020
H         -0.25140       -2.30750       -0.08680
H         -1.79540       -3.99890       -0.15190
