18
gdb 19880	3.2509	2.16347	1.94115	1.4996	69.83	-0.2336	0.0708	0.3044	793.4858	0.156044	-347.772823	-347.766115	-347.765171	-347.803255	27.467
O         -0.00810        1.45180       -0.13990
C         -0.06000        0.05830       -0.01670
C         -0.46000       -0.63540        1.25990
C         -1.20910        0.15200        2.34580
C         -2.62440        0.43190        1.81980
C         -2.83080        1.41420        0.69460
C         -2.69850       -0.06210        0.38860
C         -1.36750       -0.69100        0.02780
H          0.73530        1.76250        0.38850
H          0.72150       -0.44830       -0.58640
H          0.13290       -1.48780        1.57710
H         -1.26680       -0.46020        3.25100
H         -0.68320        1.07370        2.62480
H         -3.44940        0.27290        2.50640
H         -3.82800        1.83370        0.60150
H         -2.02850        2.07840        0.41170
H         -3.57540       -0.58570        0.02450
H         -1.41930       -1.58430       -0.58540
