15
gdb 2926	6.61015	1.76666	1.43141	2.4493	59.65	-0.2252	0.0257	0.2509	822.0886	0.124847	-345.645388	-345.638165	-345.637221	-345.677115	24.986
O         -0.00810        1.41980        0.05790
C         -0.01380        0.00510        0.00610
C         -1.42130       -0.48780       -0.01580
C         -2.54590        0.21960        0.00580
C         -3.72930       -0.70220       -0.03050
O         -3.18090       -2.01910       -0.07560
C         -1.76010       -1.95590       -0.06880
H          0.90690        1.71420        0.06890
H          0.51570       -0.36750       -0.88900
H          0.51090       -0.43200        0.87450
H         -2.61800        1.29770        0.04380
H         -4.37410       -0.59870        0.85690
H         -4.36870       -0.53590       -0.91230
H         -1.35780       -2.44720       -0.97060
H         -1.36350       -2.50980        0.79870
