18
gdb 12012	3.20908	2.01745	1.75686	1.7617	66.37	-0.2564	0.0702	0.3266	838.6912	0.153444	-384.939113	-384.931456	-384.930511	-384.970481	29.963
C         -0.00200        1.52370        0.00410
C          0.04200       -0.00180       -0.01810
O         -1.27480       -0.55860        0.06260
C          0.82210       -0.58460       -1.22900
C          1.37070       -1.95180       -0.75910
C          1.55040       -1.76360        0.73370
O          2.18910       -0.52070        1.08110
C          0.76490       -0.61020        1.17720
H          1.00760        1.93570        0.08810
H         -0.45140        1.91730       -0.91600
H         -0.59720        1.87490        0.85240
H         -1.80810       -0.15170       -0.62830
H          0.17080       -0.66800       -2.10350
H          1.64800        0.08120       -1.48960
H          0.64090       -2.75180       -0.92580
H          2.29760       -2.23240       -1.26830
H          1.78300       -2.60070        1.38650
H          0.33510       -0.51150        2.17060
