13
gdb 20197	3.86884	3.20636	2.47822	1.3943	59.39	-0.2334	-0.031	0.2024	593.0954	0.098985	-357.607695	-357.602764	-357.601819	-357.63638	20.422
C          0.01450        1.14790        0.14070
N          1.20180        1.58110        0.30090
C          2.06260        0.63120       -0.33490
C          1.98770       -0.91010        0.04770
N          1.05850       -1.37070        1.03350
C         -0.08760       -0.95580        0.66290
N         -0.13120       -0.13750       -0.55750
C          1.23670       -0.34310       -1.11840
H         -0.87190        1.62010        0.54830
H          3.03740        0.97880       -0.64960
H          2.91940       -1.45170       -0.04630
H         -1.00400       -1.10020        1.22350
H          1.33180       -0.60740       -2.16460
