18
gdb 11408	4.3149	1.33615	1.21566	2.0038	67.57	-0.2435	-0.0239	0.2196	1049.3446	0.153157	-384.969555	-384.961465	-384.96052	-385.002468	29.653
C         -0.27060        1.41850       -0.16140
C         -0.13160       -0.10300       -0.23690
C          1.04240       -0.55060       -1.11500
C          1.12960       -2.07220       -1.28930
C          0.36740       -2.31950       -2.59120
O         -0.03830       -3.36730       -3.01670
C          0.20920       -0.94960       -3.25580
O          0.92740       -0.03180       -2.45790
H          0.61830        1.87290        0.29040
H         -0.38790        1.84300       -1.16170
H         -1.13640        1.70710        0.44130
H          0.01580       -0.52250        0.76660
H         -1.06040       -0.54800       -0.61970
H          1.97070       -0.12600       -0.71970
H          2.16510       -2.39960       -1.43790
H          0.70660       -2.65620       -0.46940
H          0.61880       -0.95260       -4.27140
H         -0.86300       -0.70600       -3.32610
