14
gdb 7231	4.81734	1.28532	1.02091	2.4085	62.9	-0.2429	-0.0779	0.165	1089.8646	0.105646	-415.904753	-415.896201	-415.895257	-415.938658	28.82
C          0.13130        1.48990        0.00790
C          0.01800       -0.00810        0.00150
O          0.95990       -0.76950       -0.01180
C         -1.43090       -0.56460        0.01280
O         -2.38900        0.17050        0.02580
N         -1.41790       -1.94010        0.00500
C         -2.48420       -2.83410        0.01030
N         -3.70050       -2.48120        0.02420
H          1.18060        1.78440       -0.00170
H         -0.39530        1.90410       -0.85770
H         -0.37670        1.89510        0.88880
H         -0.48030       -2.32260       -0.00620
H         -2.11710       -3.86790        0.00090
H         -4.29760       -3.30680        0.02530
