14
gdb 18187	4.26313	1.921	1.55261	4.0808	65.94	-0.2469	-0.0155	0.2314	802.3141	0.108974	-341.568633	-341.562289	-341.561345	-341.599124	24.298
N         -0.10780       -1.19630       -0.20330
C         -0.05230       -0.04610       -0.10900
C         -0.00010        1.41530        0.02780
C         -0.63580        1.91580        1.32130
C          0.23000        2.67680        1.98600
C          1.53540        2.73270        1.27200
C          2.23840        1.42630        1.12690
N          1.39720        1.92800        0.03010
H         -0.51150        1.83830       -0.84810
H         -1.63940        1.64390        1.62120
H          0.04190        3.18640        2.92250
H          2.07910        3.66990        1.19550
H          3.29650        1.39890        0.88410
H          1.87730        0.59540        1.72730
