16
gdb 20188	3.42015	2.72079	2.06166	1.6854	62.29	-0.2369	0.0834	0.3203	703.7231	0.133679	-383.695614	-383.689892	-383.688948	-383.725213	23.532
C          0.01630        1.60130       -0.02590
C          1.54380        1.59530       -0.07720
C          2.16820        0.68660        0.95570
O          1.72980        0.42590        2.26260
C          0.34370        0.19410        2.42010
O         -0.24990       -0.52000        1.36980
C          0.03630        0.03920        0.09360
C          1.53950        0.04710       -0.22820
H         -0.48350        2.18540        0.75080
H         -0.40930        1.88180       -0.99310
H          2.14810        2.32060       -0.61020
H          3.25290        0.71530        0.96140
H          0.23270       -0.41950        3.31750
H         -0.17070        1.15600        2.56940
H         -0.60800       -0.48170       -0.61330
H          2.05250       -0.60600       -0.92320
