8
gdb 8962	5.51494	0.93067	0.79629	0.6333	67.05	-0.334	-0.1551	0.1789	1243.3275	0.036026	-375.105034	-375.097763	-375.096818	-375.13758	23.569
O          0.03320       -0.07500        0.00300
C         -0.01660        1.13070        0.00680
C          1.19510        1.96090        0.00080
N          2.15000        2.61260       -0.00390
C         -1.24920        1.88130        0.01720
C         -2.29500        2.48820        0.02600
C         -3.47360        3.17580        0.03590
N         -4.47590        3.76200        0.04430
