18
gdb 19719	3.38195	2.40581	2.37893	1.4027	68.46	-0.2463	0.0814	0.3277	721.6692	0.158111	-347.792647	-347.787026	-347.786082	-347.821911	24.596
C         -0.01500        1.52270        0.15330
C          1.30470        0.80750        0.00200
C          0.00860        0.02100        0.01130
C          0.02880       -0.62940       -1.38840
C         -0.26050        0.38960       -2.51510
C          1.07530        1.20030       -2.52460
C          1.85750        0.48050       -1.40150
O          1.43380       -0.88530       -1.59100
H         -0.24310        1.91030        1.14200
H         -0.39780        2.14390       -0.64740
H          1.99240        0.77960        0.83920
H         -0.27530       -0.59660        0.85550
H         -0.52570       -1.56520       -1.45300
H         -0.40860       -0.13750       -3.45970
H         -1.14540        1.00220       -2.32770
H          1.60130        1.08240       -3.47420
H          0.94240        2.26930       -2.34260
H          2.94290        0.53980       -1.47790
