16
gdb 1480	4.80946	1.58999	1.39529	4.2236	58.51	-0.2446	0.0375	0.2821	888.8399	0.135832	-362.938898	-362.930544	-362.9296	-362.972383	28.787
C          0.01220        1.70270       -0.11600
C          0.01400        0.17210       -0.00520
C          0.66300       -0.49850       -1.21460
O          2.04460       -0.15070       -1.20400
N          0.70320       -0.28110        1.19730
C          0.06400       -0.57780        2.35530
O         -1.13690       -0.51980        2.52790
H          1.03170        2.08410       -0.21750
H         -0.56280        2.02380       -0.99090
H         -0.44410        2.14190        0.77440
H         -1.01660       -0.18380        0.08050
H          0.53140       -1.58780       -1.14310
H          0.17060       -0.15140       -2.13500
H          2.48760       -0.62960       -1.90970
H          1.70910       -0.33670        1.15030
H          0.77250       -0.89410        3.14730
