16
gdb 5239	7.20014	1.11474	0.9797	4.6697	67.66	-0.2155	0.0327	0.2482	1162.7383	0.131659	-379.94127	-379.93338	-379.932436	-379.975351	27.314
C         -0.06070        1.40910       -0.04880
O         -0.01090        0.00540       -0.14390
C         -1.26460       -0.59890        0.05890
C         -1.08190       -2.08070        0.02980
C          0.03060       -2.87560        0.12050
N         -0.31330       -4.20930        0.06330
C         -1.61780       -4.22560       -0.05810
N         -2.13800       -2.96170       -0.08510
H          0.95260        1.78110       -0.21490
H         -0.72950        1.84630       -0.80720
H         -0.40470        1.73960        0.94420
H         -1.69310       -0.27200        1.02540
H         -1.98320       -0.28040       -0.72040
H          1.05510       -2.55460        0.21580
H         -2.24180       -5.10380       -0.13150
H         -3.10970       -2.71870       -0.18250
