20
gdb 8073	3.4902	2.16598	1.7168	0.2122	78.94	-0.2298	0.0251	0.2549	850.9174	0.179287	-311.875552	-311.868658	-311.867714	-311.905859	29.015
C         -0.06320        1.54190        0.02500
C          0.02580        0.02630        0.01420
C          1.09860       -0.65650       -0.89230
C          1.14620       -1.78640        0.18120
C          0.72580       -0.69330        1.21050
C         -0.03530       -2.70500       -0.04440
C         -1.22870       -2.14650       -0.24620
C         -1.34500       -0.63940       -0.24050
H          0.91800        1.99350        0.20680
H         -0.43640        1.92500       -0.93260
H         -0.74500        1.89450        0.80850
H          0.81710       -0.93790       -1.91060
H          2.02290       -0.07080       -0.91030
H          2.08420       -2.32060        0.33810
H          1.58400       -0.11410        1.56500
H          0.11310       -1.00740        2.05990
H          0.10660       -3.78130       -0.03810
H         -2.12470       -2.73680       -0.41550
H         -2.06340       -0.31580        0.52770
H         -1.75750       -0.28560       -1.19740
