22
gdb 6217	3.16301	1.61104	1.46938	1.4118	77.16	-0.2573	0.0748	0.3321	1004.6047	0.200348	-350.227642	-350.218829	-350.217885	-350.260305	34.456
C          0.33480        1.38090        0.21700
C         -0.01590       -0.10600        0.01720
C         -1.53770       -0.26620       -0.07170
C          0.70150       -0.68060       -1.22980
C          2.14060       -1.00940       -0.77390
C          2.07680       -1.18400        0.77310
O          2.85070       -0.20350        1.46740
C          0.59880       -0.97210        1.14330
H          1.40970        1.52920        0.34120
H         -0.00660        1.97890       -0.63560
H         -0.15370        1.77360        1.11590
H         -1.94760        0.30880       -0.91000
H         -1.82040       -1.31520       -0.21600
H         -2.02800        0.09030        0.84120
H          0.19270       -1.60030       -1.54330
H          0.67310        0.00430       -2.08330
H          2.53420       -1.89940       -1.27380
H          2.82490       -0.18530       -1.00040
H          2.41480       -2.18570        1.07370
H          3.76610       -0.29810        1.18540
H          0.50810       -0.52730        2.13820
H          0.09290       -1.94480        1.16730
