17
gdb 8464	2.90921	2.10614	1.56964	2.9374	70.53	-0.2528	0.0258	0.2786	883.4288	0.140944	-363.850707	-363.842697	-363.841753	-363.882658	30.076
C         -0.09510        1.47300        0.03170
C          0.04430       -0.01020        0.06690
C          1.17730       -0.87310       -0.36730
C          0.61940       -1.00570        1.06150
C          1.43890       -0.88190        2.31060
C         -0.71440       -1.66820        0.93680
N         -1.29080       -2.61090        1.52940
O         -1.18340       -0.79960       -0.04690
H          0.86710        1.94910        0.24150
H         -0.42750        1.80670       -0.95740
H         -0.82450        1.81490        0.77190
H          1.01470       -1.65380       -1.10420
H          2.15210       -0.39450       -0.40780
H          2.22860       -0.13390        2.18960
H          0.81780       -0.59170        3.16330
H          1.91730       -1.83550        2.55670
H         -2.24470       -2.73410        1.18530
