16
gdb 14628	8.31682	0.61525	0.59859	2.8057	64.46	-0.2633	-0.0339	0.2294	1738.8714	0.127601	-420.905809	-420.896687	-420.895743	-420.941842	29.579
O          0.13620       -0.12820       -0.53520
C          0.11560        1.06410       -0.38070
C          1.33530        1.92470       -0.12770
C          1.44800        3.06340       -1.15470
C          2.60720        4.00260       -0.83740
O          2.62190        5.10230       -1.75290
C          3.59670        5.14400       -2.68250
O          3.66760        6.00410       -3.50600
H         -0.84320        1.63290       -0.41950
H          1.22990        2.35500        0.87950
H          2.21990        1.28110       -0.13060
H          1.58460        2.64950       -2.16050
H          0.52100        3.64820       -1.17620
H          2.49900        4.43120        0.16410
H          3.56610        3.46870       -0.87340
H          4.31430        4.30460       -2.58780
