17
gdb 7996	2.86503	2.02831	1.5789	1.035	63.82	-0.2137	-0.0333	0.1804	869.0119	0.141936	-401.000635	-400.992685	-400.991741	-401.033397	29.382
C          0.85380        1.24120       -0.15170
N         -0.02740        0.08450        0.02960
C          0.05270       -0.88350       -1.08580
C          1.19500       -1.85720       -0.77570
O          2.41060       -1.40310       -1.35630
C          1.31940       -1.75280        0.76310
O          2.13580       -2.34380        1.42190
C          0.30830       -0.69680        1.22240
H          1.92110        0.98560       -0.24740
H          0.55300        1.77740       -1.05660
H          0.73020        1.92260        0.69560
H         -0.89220       -1.43880       -1.13930
H          0.20250       -0.37030       -2.03720
H          0.97290       -2.89110       -1.07680
H          3.12660       -1.85920       -0.89510
H          0.69900       -0.08280        2.03620
H         -0.58370       -1.22140        1.59910
