19
gdb 2339	5.37569	1.46769	1.28926	0.9115	68.75	-0.24	0.093	0.3331	1007.1546	0.170037	-310.902708	-310.894273	-310.893329	-310.935642	30.171
C         -0.01520        1.47000       -0.05490
C         -0.18930       -0.01650       -0.31450
O          1.04750       -0.53820       -0.77350
C          1.00660       -1.90220       -1.04570
C          0.46750       -2.37540       -2.37690
C          1.95630       -2.42390       -2.08230
C          2.90910       -1.49250       -2.79810
H          0.76080        1.64040        0.69680
H          0.27860        1.98800       -0.97240
H         -0.95130        1.90660        0.30590
H         -0.49780       -0.53710        0.60720
H         -0.97580       -0.19510       -1.06420
H          0.80840       -2.52290       -0.16970
H         -0.09900       -3.29940       -2.42320
H          0.13470       -1.60320       -3.06330
H          2.36020       -3.41160       -1.87490
H          2.47150       -0.49770       -2.90670
H          3.84520       -1.38160       -2.23990
H          3.15530       -1.87400       -3.79480
