13
gdb 4401	3.68695	2.06143	1.32307	5.2785	66.87	-0.2055	-0.0358	0.1697	853.2152	0.096748	-398.669423	-398.66274	-398.661796	-398.700053	25.797
N          0.06610        1.34860        0.14990
C         -0.06900       -0.00630        0.05440
C         -1.25330       -0.69630        0.02930
C         -1.17770       -2.10580       -0.01110
C          0.01420       -2.77170       -0.02800
C          1.25810       -2.06140       -0.00880
O          2.38700       -2.46580       -0.02430
O          1.11080       -0.62590        0.03050
H          0.96950        1.72110       -0.09770
H         -0.72790        1.91420       -0.10030
H         -2.19670       -0.16910        0.05000
H         -2.10270       -2.67470       -0.03030
H          0.07990       -3.85050       -0.06020
