18
gdb 15729	3.32822	1.67394	1.28284	3.943	63.67	-0.2428	0.0594	0.3023	973.3455	0.154336	-422.071424	-422.063251	-422.062307	-422.104314	30.194
O         -0.10170        1.45140        0.01810
C          0.02660        0.04110       -0.00990
C         -1.34130       -0.61600        0.14830
O         -2.19700       -0.12880       -0.90410
C         -2.76670       -1.22580       -1.61430
C         -2.72440       -2.39690       -0.63080
C         -1.37780       -2.15180        0.06960
O         -0.28220       -2.59580       -0.72300
H         -0.77180        1.66350       -0.64270
H          0.49320       -0.30840       -0.93900
H          0.67940       -0.23960        0.82330
H         -1.77630       -0.28810        1.10260
H         -3.77810       -0.94720       -1.92450
H         -2.17470       -1.45400       -2.51190
H         -3.54390       -2.32310        0.09220
H         -2.77500       -3.37790       -1.11200
H         -1.33450       -2.59710        1.07220
H         -0.33050       -3.55460       -0.78630
