12
gdb 5658	5.45898	2.29353	1.615	4.1261	61.38	-0.2027	0.0035	0.2062	712.8901	0.087966	-377.556044	-377.550706	-377.549762	-377.585272	21.141
N         -0.03020        1.38960        0.01030
C          1.30530        1.73980       -0.00110
N          2.12460        0.70110       -0.01460
C          1.26450       -0.34310       -0.01170
C         -0.06300        0.01170        0.00320
C         -0.81880       -1.19910        0.00410
C          0.13400       -2.18120       -0.01060
O          1.41790       -1.68770       -0.02040
H         -0.80510        2.02960        0.02140
H          1.61500        2.77360        0.00140
H         -1.88540       -1.35550        0.01380
H          0.05940       -3.25570       -0.01560
