17
gdb 3288	4.53168	2.64487	2.13072	1.6825	63.36	-0.2396	0.0742	0.3138	684.7706	0.149365	-309.68596	-309.679486	-309.678542	-309.716218	24.72
C          0.21640        1.56790        0.04870
C          0.06210        0.05590        0.02070
C          0.94720       -0.77890       -0.96540
C          1.41650       -1.68390        0.20920
C          2.67330       -1.17090        0.92450
O          1.90100       -0.22480        1.70230
C          0.65490       -0.75710        1.19980
H          1.25030        1.84120        0.27750
H         -0.05440        2.00810       -0.91700
H         -0.42460        2.01900        0.81410
H         -0.99220       -0.21740       -0.10520
H          0.38540       -1.29670       -1.74580
H          1.75700       -0.21790       -1.44260
H          1.26890       -2.75920        0.12300
H          3.16410       -1.90750        1.57490
H          3.43300       -0.68060        0.30230
H         -0.00730       -1.07850        2.00950
