14
gdb 1646	5.21252	1.82494	1.37423	1.165	54.38	-0.2399	-0.0611	0.1788	850.4674	0.111761	-361.77204	-361.764019	-361.763075	-361.804796	27.651
C          0.03170        1.53160        0.00930
C         -0.05300        0.00850        0.00280
C         -1.46680       -0.51470        0.01340
O         -2.45570        0.18460        0.02670
C         -1.61020       -2.05750        0.00640
N         -2.90330       -2.44800        0.01620
O         -0.63950       -2.79040       -0.00650
H          1.07500        1.85770        0.00140
H         -0.46910        1.95680       -0.86460
H         -0.45320        1.94840        0.89610
H          0.45040       -0.43270       -0.86730
H          0.46620       -0.44080        0.85930
H         -3.62220       -1.74250        0.02680
H         -3.13510       -3.42650        0.01330
