24
gdb 6134	2.64181	1.69523	1.45371	0.0967	84.59	-0.2696	0.0749	0.3444	1063.788	0.221954	-314.277174	-314.267481	-314.266537	-314.310483	37.429
C         -0.76200        1.10200       -1.22090
C         -0.13680       -0.23020       -0.81300
C          1.32190       -0.45720       -1.30830
C          1.86190       -0.29470        0.14980
C          2.76090       -1.42840        0.64150
C          2.55280        1.05310        0.37610
C          0.37510       -0.37290        0.66070
C         -0.12360        0.57670        1.74280
H         -0.11380        1.95410       -0.99280
H         -0.95010        1.11740       -2.30040
H         -1.71950        1.27000       -0.71570
H         -0.82490       -1.03210       -1.09960
H          1.48950       -1.45890       -1.71460
H          1.69430        0.27150       -2.03590
H          3.72850       -1.42000        0.12520
H          2.96030       -1.33970        1.71660
H          2.29930       -2.40660        0.46780
H          1.95430        1.89450        0.01540
H          2.76140        1.22390        1.43830
H          3.50990        1.08090       -0.15790
H          0.18460       -1.39880        0.99700
H          0.01520        1.62830        1.47630
H         -1.19200        0.42350        1.93280
H          0.40260        0.40430        2.68860
