15
gdb 2419	4.26017	3.42726	2.4508	1.8455	60.63	-0.2297	0.0821	0.3118	600.469	0.124987	-308.427345	-308.421584	-308.42064	-308.456472	22.935
C         -0.00650        1.48880       -0.01700
C          0.03970       -0.00970       -0.08550
C          0.55970       -0.95350       -1.19710
C          0.07180       -1.94020       -0.11450
C          0.50860       -0.99400        1.04270
O         -0.78200       -1.01810        1.72390
C         -1.10590       -1.00980        0.30080
H          0.99700        1.92170       -0.09100
H         -0.61060        1.90600       -0.82990
H         -0.44690        1.80480        0.93440
H          0.00540       -0.94880       -2.14050
H          1.63630       -0.93290       -1.39100
H          0.07590       -3.02930       -0.10010
H          1.41900       -0.99090        1.64270
H         -2.15400       -1.02580        0.00080
