17
gdb 8078	3.78574	2.26157	1.82894	1.8188	67.43	-0.2465	0.0191	0.2656	775.4553	0.144135	-363.865648	-363.859185	-363.858241	-363.895701	26.406
C         -0.07670        1.52480       -0.00640
C          0.03250        0.01790        0.00380
C          1.07620       -0.71760       -0.90040
C          1.01970       -1.83370        0.16880
C          0.69980       -0.73070        1.20470
O         -0.15810       -2.64010       -0.04680
C         -1.25780       -1.87240       -0.23860
N         -1.28450       -0.60540       -0.23550
H          0.89820        1.99010        0.17070
H         -0.46140        1.87290       -0.97030
H         -0.77220        1.86210        0.76880
H          0.77920       -0.96800       -1.92100
H          2.04850       -0.22000       -0.89290
H          1.84480       -2.52970        0.31200
H          1.61340       -0.23510        1.54060
H          0.06820       -0.99260        2.05610
H         -2.14600       -2.47770       -0.40120
