18
gdb 19977	3.70716	1.55149	1.21393	2.2538	68.6	-0.2438	0.0627	0.3065	1018.7172	0.153339	-384.897739	-384.889605	-384.88866	-384.931103	29.599
O          0.03640        1.32260       -0.33730
C          0.03120       -0.04630       -0.00570
C          0.06620       -0.39450        1.49830
O         -1.29010       -0.87470        1.46540
C         -1.40180       -0.63880        0.03550
C         -2.54800        0.24860       -0.33450
C         -3.17650        0.11780       -1.70150
C         -3.92340       -0.35490       -0.48330
H          0.94040        1.64590       -0.27520
H          0.73800       -0.61030       -0.62720
H          0.77710       -1.17800        1.79220
H          0.18500        0.47500        2.15740
H         -1.48300       -1.59590       -0.50050
H         -2.49110        1.24820        0.08030
H         -3.50430        1.02530       -2.19510
H         -2.77770       -0.63280       -2.37640
H         -4.02690       -1.42410       -0.33080
H         -4.77060        0.22600       -0.13690
