17
gdb 1798	3.7691	2.52204	1.74985	2.7069	64.73	-0.2401	-0.0082	0.2319	768.2572	0.146603	-309.736328	-309.728474	-309.72753	-309.768317	28.834
C         -0.24710        1.44130        0.06780
C          0.29630        0.02740       -0.03660
O          0.84570       -0.50010        0.90960
C          0.13400       -0.69950       -1.34490
C         -0.55790       -0.00510       -2.50190
C          1.26790       -1.67100       -1.66190
C         -0.04340       -2.20870       -1.20050
H          0.22210        2.09460       -0.67610
H         -1.32420        1.46000       -0.13160
H         -0.05250        1.82640        1.06900
H         -0.03330        0.90680       -2.80700
H         -0.59340       -0.66560       -3.37340
H         -1.59070        0.26770       -2.25920
H          1.53980       -1.77650       -2.70660
H          2.08970       -1.69010       -0.95600
H         -0.09710       -2.58680       -0.18660
H         -0.69440       -2.69260       -1.92050
