18
gdb 1794	3.70763	2.01463	1.9186	1.9572	64.2	-0.2295	0.0816	0.311	796.9409	0.158741	-326.944158	-326.935934	-326.93499	-326.976232	30.119
C         -0.31170        1.36840        0.11000
N         -0.02080       -0.05380        0.22580
C          1.30770       -0.50650       -0.18410
C          0.91160       -0.54990        1.25320
C          1.55360        0.37580        2.26640
C          0.41080       -1.86250        1.83510
O         -0.73710       -1.65440        2.64150
H          0.56560        2.02680        0.20000
H         -0.76470        1.55170       -0.86980
H         -1.03720        1.65890        0.87680
H          1.34580       -1.41210       -0.78560
H          2.02940        0.25700       -0.47390
H          1.82190        1.34670        1.84560
H          0.87490        0.53400        3.11050
H          2.47000       -0.07840        2.65840
H          0.20000       -2.56760        1.01800
H          1.16830       -2.31320        2.48580
H         -1.38580       -1.24200        2.05820
