15
gdb 95	9.63416	4.10254	3.28665	0.095	52.94	-0.2896	0.0927	0.3823	455.0215	0.138424	-196.407957	-196.40245	-196.401505	-196.436159	20.299
C         -0.47010        1.44210       -0.06680
C          0.14290        0.05490        0.03750
C          1.37250       -0.30300       -0.84680
C          1.95950       -1.09360        0.35330
C          0.99890       -0.30770        1.28560
H          0.29210        2.21840        0.06840
H         -0.93610        1.60090       -1.04610
H         -1.24150        1.59710        0.69630
H         -0.63520       -0.70560       -0.10060
H          1.19340       -0.84120       -1.78130
H          1.96870        0.58860       -1.07000
H          1.69870       -2.15500        0.30520
H          3.03250       -1.01080        0.54150
H          1.48290        0.58240        1.70210
H          0.51300       -0.84980        2.10120
