18
gdb 10833	4.57281	1.51168	1.20233	3.0901	69.94	-0.2291	0.0205	0.2496	1009.8008	0.155917	-381.130061	-381.122355	-381.121411	-381.162063	29.134
C         -0.12510        1.53140        0.01590
C          0.01310        0.01190        0.00870
C          0.74420       -0.47560       -1.24140
O          0.99460       -1.89030       -1.24000
C          1.35580       -2.50840       -0.07610
N          2.01520       -3.58830       -0.07230
C          0.82850       -1.90710        1.21360
N          0.69170       -0.45170        1.22110
H          0.85890        2.01550       -0.00070
H         -0.68510        1.88340       -0.85570
H         -0.64530        1.85490        0.92050
H         -0.98840       -0.44130        0.01880
H          0.16840       -0.28450       -2.15210
H          1.70770        0.04960       -1.33100
H          2.24060       -3.86380       -1.03150
H         -0.16590       -2.34050        1.39160
H          1.47010       -2.23480        2.03260
H          1.61370       -0.02340        1.26990
