20
gdb 12819	3.35355	1.93067	1.50805	1.7216	74.09	-0.2539	0.0857	0.3396	925.9891	0.1786	-349.019716	-349.012162	-349.011218	-349.051059	29.967
C          0.04730        1.53630       -0.04840
C         -0.03030        0.03130        0.06680
C         -1.26280       -0.62100       -0.53690
C         -1.28970       -2.14070       -0.33130
C         -1.09970       -2.48740        1.14970
C          0.26990       -2.02580        1.67790
C          0.70120       -0.67210        1.14010
O          1.20050       -0.65760       -0.20840
H          0.98040        1.90950        0.38150
H          0.00950        1.84340       -1.09970
H         -0.79200        2.01320        0.46930
H         -2.15190       -0.16710       -0.07770
H         -1.30590       -0.37400       -1.60540
H         -2.24030       -2.54260       -0.69760
H         -0.49270       -2.59980       -0.92610
H         -1.89520       -1.99980        1.72930
H         -1.21400       -3.56430        1.31310
H          0.25710       -1.98900        2.77300
H          1.04600       -2.75040        1.40120
H          1.29910       -0.06460        1.82190
