16
gdb 20943	7.42691	1.10252	0.97684	1.6398	67.55	-0.2058	0.0076	0.2134	1170.5281	0.132997	-376.103179	-376.095449	-376.094505	-376.135925	27.609
C          0.01190        1.53040       -0.01750
C         -0.09980        0.01280       -0.11530
N          0.83590       -0.50540       -1.10470
C          0.87160       -1.86460       -1.34520
N          1.34050       -2.36440       -2.49310
N          1.25550       -3.68450       -2.29920
N          0.76890       -4.08500       -1.14200
C          0.50930       -2.94150       -0.50350
H          1.03090        1.82870        0.24490
H         -0.24800        2.00650       -0.97000
H         -0.67170        1.91700        0.74320
H          0.14710       -0.43420        0.85510
H         -1.14060       -0.27530       -0.34020
H          0.87670        0.03520       -1.95820
H          1.54460       -4.33670       -3.00830
H          0.09230       -2.94200        0.48950
