19
gdb 10627	2.50016	1.72278	1.24852	4.2696	76.54	-0.277	0.0389	0.3159	1061.6945	0.164522	-327.942953	-327.933899	-327.932955	-327.976424	32.94
C          0.23860        1.56160        0.19900
C         -0.14550        0.10790       -0.09850
C          0.63170       -0.48850       -1.26970
C          2.02160       -1.07610       -1.04030
C          0.88930       -1.99320       -1.39820
C          0.32600       -3.00020       -0.42050
C          0.43300        0.20610       -2.51940
N          0.25910        0.76650       -3.51720
H          1.30070        1.64500        0.45130
H          0.04840        2.20500       -0.66530
H         -0.34120        1.94850        1.04190
H          0.03210       -0.50630        0.78890
H         -1.21880        0.04430       -0.31300
H          2.79370       -0.87590       -1.77350
H          2.36390       -1.07450       -0.01000
H          0.89290       -2.34030       -2.42750
H          0.39910       -2.66110        0.61570
H         -0.72580       -3.21850       -0.63250
H          0.88250       -3.94050       -0.49490
