10
gdb 1200	10.15779	1.10653	1.00403	3.6118	62.85	-0.2917	-0.1061	0.1856	1047.2237	0.064928	-322.175807	-322.168583	-322.167638	-322.207693	23.6
C          0.00250        1.50440       -0.01950
C         -0.02750       -0.00240        0.06000
O         -0.06500       -0.63170        1.09200
C         -0.00810       -0.70240       -1.22350
C          0.00730       -1.30140       -2.27470
C          0.02450       -1.97120       -3.46380
N          0.03950       -2.53680       -4.47820
H          0.90450        1.83470       -0.54630
H         -0.85560        1.86760       -0.59570
H         -0.01780        1.92140        0.98800
