20
gdb 12804	3.24794	2.00279	1.54846	0.2862	80.19	-0.2264	0.0256	0.252	916.2359	0.178964	-311.877911	-311.870448	-311.869504	-311.909107	29.969
C         -0.08150        1.52760        0.02830
C         -0.01050        0.01100        0.00630
C         -0.84080       -0.74870        1.02400
C          0.66790       -0.71220        1.14870
C          1.49380       -1.96060        0.83610
C          2.14920       -1.90450       -0.55730
C          1.17270       -1.44210       -1.61270
C          0.18490       -0.58810       -1.34330
H          0.83500        1.97390       -0.37350
H         -0.92080        1.89220       -0.57640
H         -0.22010        1.90110        1.04810
H         -1.43460       -0.17180        1.72640
H         -1.29200       -1.68620        0.71490
H          1.06150       -0.07840        1.93820
H          2.26190       -2.09970        1.60430
H          0.85270       -2.84850        0.87980
H          3.01560       -1.22690       -0.53800
H          2.55040       -2.89020       -0.81860
H          1.29600       -1.82880       -2.62120
H         -0.50170       -0.27370       -2.12760
