18
gdb 6295	3.50975	1.19416	0.93057	4.0649	65.17	-0.2467	-0.0217	0.2251	1222.9751	0.15051	-422.086193	-422.076784	-422.07584	-422.120632	33.588
C         -0.16470        1.54730       -0.21650
C          0.03010        0.03890       -0.08920
O         -1.19800       -0.60060        0.30270
C          0.46470       -0.61330       -1.39950
C          0.67550       -2.12860       -1.28170
O         -0.52020       -2.86250       -1.13680
C          1.38510       -2.68960       -2.50790
O          2.30260       -2.14730       -3.06760
H          0.77140        2.03770       -0.50120
H         -0.92210        1.77220       -0.97340
H         -0.49210        1.98100        0.73520
H          0.79970       -0.16470        0.67310
H         -1.44860       -0.28010        1.17450
H         -0.29300       -0.42150       -2.16900
H          1.40370       -0.16360       -1.73670
H          1.36290       -2.31630       -0.43170
H         -1.05690       -2.37530       -0.49560
H          0.97910       -3.67040       -2.83870
