17
gdb 10834	4.72233	1.54584	1.22443	3.0788	66.66	-0.2541	0.0183	0.2725	981.9621	0.143034	-401.010189	-401.002588	-401.001644	-401.042135	28.311
C         -0.16450        1.49750        0.05050
C          0.02480       -0.00960       -0.00180
C          0.78660       -0.45710       -1.24040
O          1.07670       -1.86380       -1.22810
C          1.39810       -2.46060       -0.04610
N          2.00670       -3.56700        0.01030
C          0.88390       -1.80750        1.22240
O          0.77310       -0.40050        1.14120
H          0.80440        2.00570        0.04040
H         -0.75280        1.84560       -0.80370
H         -0.68670        1.77550        0.96900
H         -0.95710       -0.51470        0.01550
H          0.21050       -0.28150       -2.15290
H          1.73200        0.09760       -1.30570
H          2.22700       -3.89770       -0.93180
H         -0.09850       -2.25460        1.45350
H          1.56470       -2.04410        2.04010
