15
gdb 21174	7.13025	1.27509	1.09415	3.7942	66.13	-0.1985	0.0352	0.2337	1052.0977	0.119952	-395.972837	-395.964966	-395.964022	-396.004973	28.795
C         -0.06000        1.45110       -0.11950
N          0.14670        0.02100        0.06210
C          0.64660       -0.74550       -0.95240
C          0.68880       -2.09930       -1.15460
C          1.42030       -2.21610       -2.36880
N          1.81580       -3.39430       -2.98480
N          1.77360       -1.05200       -2.87320
O          1.27260       -0.09800       -1.94140
H          0.87200        1.91400       -0.44860
H         -0.83820        1.68650       -0.85870
H         -0.34140        1.88590        0.84180
H         -0.53370       -0.45130        0.63550
H          0.30040       -2.88270       -0.52630
H          1.12210       -4.12760       -2.94600
H          2.13920       -3.24270       -3.93150
