17
gdb 4566	5.55465	1.47713	1.18391	1.9275	78.91	-0.2402	-0.0184	0.2218	1028.8444	0.143123	-326.803047	-326.795149	-326.794205	-326.836306	28.329
C         -0.03970        1.53080        0.00260
C         -0.00900        0.02460        0.01990
C         -0.27390       -0.72600       -1.12780
N         -0.26500       -2.05740       -1.18750
C          0.01760       -2.74030       -0.07040
C          0.01750       -4.24320       -0.18000
C          0.29770       -2.08780        1.13330
C          0.28370       -0.70020        1.17580
H          0.92910        1.95540        0.28910
H         -0.28760        1.90890       -0.99300
H         -0.78340        1.92530        0.70410
H         -0.50850       -0.21150       -2.05910
H          0.25680       -4.71920        0.77410
H         -0.96180       -4.60180       -0.51330
H          0.74730       -4.57180       -0.92700
H          0.52360       -2.66450        2.02400
H          0.49970       -0.18030        2.10540
