18
gdb 17843	3.88049	1.68169	1.49995	2.4817	67.2	-0.2416	0.0654	0.307	912.4912	0.154015	-384.888542	-384.88102	-384.880075	-384.920266	29.188
C         -0.11770        1.54800        0.23960
C          0.05900        0.05340       -0.05870
O          1.00890       -0.52610        0.82300
C         -1.29630       -0.65090       -0.05740
C         -1.60320       -2.13870       -0.01850
C         -0.74310       -2.86700        1.00990
O         -1.06430       -1.87510        2.03660
C         -1.98840       -1.23200        1.13550
H          0.85870        2.03910        0.24540
H         -0.74890        2.03640       -0.51110
H         -0.58180        1.69240        1.22170
H          0.49310       -0.05120       -1.06280
H          0.53680       -0.75180        1.63660
H         -2.01220       -0.14540       -0.70570
H         -2.22480       -2.62120       -0.76080
H         -1.15770       -3.83840        1.29900
H          0.33100       -2.93990        0.82980
H         -2.94090       -0.92060        1.54980
