15
gdb 13585	3.44574	1.68032	1.26575	2.5134	63.97	-0.2485	-0.0785	0.17	952.8215	0.116814	-399.801724	-399.793486	-399.792542	-399.834805	28.547
C          0.33550        1.32280       -0.07110
C          0.03150       -0.15310        0.02020
C          0.73130       -1.15410       -0.86460
N          1.01900       -1.06910        0.54850
C          2.18740       -0.79640        1.20030
O          2.32300        0.01190        2.09780
C          3.38290       -1.67170        0.80170
O          3.41890       -2.39710       -0.15590
H          1.33800        1.49740       -0.47240
H         -0.38940        1.81230       -0.72880
H          0.28420        1.79200        0.91480
H         -0.98560       -0.39800        0.32200
H          0.21590       -2.05290       -1.19080
H          1.48370       -0.78160       -1.55440
H          4.23810       -1.52660        1.49370
