13
gdb 20964	7.86992	1.18383	1.04249	3.6544	56.5	-0.2853	-0.0666	0.2187	1069.2022	0.094548	-431.858137	-431.850973	-431.850029	-431.890334	24.749
C          0.02800        1.51420       -0.07430
C         -0.00210        0.00300        0.01270
O          0.66340       -0.51400       -1.16540
C          0.73100       -1.82390       -1.25860
N          0.26900       -2.70750       -0.41440
O          0.60610       -3.89980       -0.99170
N          1.26940       -3.65510       -2.18270
N          1.34780       -2.41200       -2.34880
H          1.05700        1.88160       -0.10420
H         -0.49270        1.86280       -0.96980
H         -0.46720        1.94020        0.80300
H          0.52190       -0.37150        0.89880
H         -1.02420       -0.39060        0.03380
