13
gdb 4562	4.09452	1.80732	1.26391	3.0274	56.36	-0.1975	0.0474	0.2449	889.6083	0.094933	-435.785975	-435.778304	-435.777359	-435.818106	26.892
C         -0.02280        1.45380        0.00990
N         -0.04210        0.00900        0.00050
C         -1.18890       -0.82040        0.00350
C         -0.72270       -2.07370       -0.00700
O         -1.34290       -3.25900       -0.00970
O          0.64480       -2.08550       -0.01630
C          1.08920       -0.75340       -0.01190
O          2.25030       -0.44140       -0.01740
H          1.02240        1.76570        0.00290
H         -0.52630        1.85980       -0.87420
H         -0.51070        1.84820        0.90800
H         -2.19120       -0.43520        0.01260
H         -0.66780       -3.94830       -0.01830
