16
gdb 19849	4.66462	2.05347	1.73405	1.5135	70.45	-0.2278	0.0041	0.2319	777.9783	0.132294	-346.541279	-346.535241	-346.534297	-346.571207	24.392
C          0.03560        1.41590       -0.28980
C          1.31720        0.76250        0.12820
C          0.00060       -0.06100        0.05210
C          0.54710       -0.75480       -1.16870
C          0.38400       -1.07110       -2.44660
C          1.68890       -0.68700       -3.15140
O          2.38630        0.18430       -2.23580
C          1.90850       -0.17650       -0.95280
H         -0.40130        2.07460        0.45500
H         -0.11870        1.72810       -1.31770
H          1.85480        1.07990        1.01290
H         -0.60420       -0.46330        0.85330
H         -0.49430       -1.41670       -2.97630
H          2.31840       -1.55780       -3.40030
H          1.50440       -0.13460       -4.08060
H          2.60370       -0.87320       -0.45520
