20
gdb 8182	2.63548	2.5382	1.71004	1.6183	74.21	-0.2337	0.0842	0.318	863.1357	0.177741	-348.996208	-348.988701	-348.987756	-349.027273	30.296
C         -0.04120        1.53550       -0.01660
C          0.08050        0.02190        0.05600
O          0.94030       -0.48060       -0.99910
C          1.88560       -1.27040       -0.26040
C          2.28540       -0.34740        0.91290
C          0.78340       -0.58870        1.29290
C          0.20810       -0.30000        2.65880
C          1.00300       -2.04250        0.74620
H          0.91200        2.03340        0.18080
H         -0.37380        1.83110       -1.01610
H         -0.78020        1.89800        0.70610
H         -0.91930       -0.42120       -0.06380
H          2.59180       -1.73680       -0.94540
H          2.96860       -0.81780        1.62330
H          2.61890        0.66320        0.66840
H          0.23760        0.77090        2.88790
H         -0.83730       -0.62450        2.72310
H          0.76730       -0.82260        3.44150
H          0.13990       -2.58090        0.34510
H          1.56940       -2.67050        1.43700
