13
gdb 5378	5.37801	1.72464	1.31656	2.7971	64.78	-0.2531	-0.0753	0.1778	873.7428	0.096121	-394.800153	-394.793066	-394.792122	-394.832727	24.374
C         -0.00570        1.44000        0.03360
N         -0.00590       -0.01060       -0.01460
C          0.54520       -0.66640        0.90210
O          1.17290        0.03580        1.99420
C          1.75020       -0.68090        2.95510
N          1.81170       -1.95850        3.01840
C          1.19450       -2.59680        1.94560
N          0.59890       -2.04410        0.94840
H          1.01270        1.85020        0.03730
H         -0.52900        1.82300       -0.84460
H         -0.50980        1.82070        0.93170
H          2.19010       -0.05050        3.72530
H          1.23350       -3.68320        1.97580
