18
gdb 15881	2.80591	1.79648	1.25479	3.4402	67.89	-0.2476	-0.0286	0.219	998.0618	0.152819	-384.947539	-384.939157	-384.938213	-384.980561	30.93
C         -0.28220        1.53150       -0.11950
C          0.01240        0.03490       -0.06110
C          1.30500       -0.38610       -0.84360
C          1.98760       -0.56620        0.51490
O          3.13040       -0.58730        0.89040
C          0.66220       -0.49420        1.27250
C          0.71400        0.30510        2.57620
O          1.59640       -0.31550        3.49140
H          0.60500        2.13020        0.11450
H         -0.61320        1.81600       -1.12360
H         -1.07100        1.81440        0.58480
H         -0.87690       -0.52850       -0.35100
H          1.20440       -1.33800       -1.37490
H          1.75540        0.34600       -1.51980
H          0.31490       -1.50960        1.49850
H          1.01330        1.34440        2.37200
H         -0.27040        0.33830        3.05540
H          2.44800       -0.39770        3.04110
