17
gdb 18356	3.39635	2.19625	1.63239	3.7318	67.72	-0.2466	0.0194	0.266	825.8422	0.144019	-363.840661	-363.833848	-363.832904	-363.871427	26.529
C         -0.09570        1.58960       -0.13930
C         -0.04920        0.06340       -0.03410
C          0.95930       -0.56040       -1.08730
N          2.30720       -0.57750       -0.43740
C          2.00850       -0.57090        0.78710
O          2.63240       -0.20660        1.94920
C          1.30820        0.24170        2.45590
C          0.60310       -0.47480        1.26190
H          0.90490        2.02660       -0.05350
H         -0.50400        1.89260       -1.10850
H         -0.72770        2.02640        0.64070
H         -1.05670       -0.34010       -0.17160
H          0.65630       -1.57300       -1.38420
H          1.01520        0.04470       -1.99710
H          1.11830       -0.16510        3.45000
H          1.26970        1.33290        2.45970
H          0.16900       -1.42500        1.58250
