11
gdb 21775	3.95612	2.05161	1.351	1.5987	55.13	-0.2755	-0.0736	0.2019	802.2765	0.074976	-430.783131	-430.777064	-430.776119	-430.813533	22.447
O         -0.03530       -0.07380        0.00360
C         -0.02130        1.13330        0.00950
N         -1.17630        1.90780        0.02890
N         -1.25670        3.25110        0.03680
C         -0.15550        3.91840        0.02550
C          1.18540        3.30500        0.00460
O          2.23180        3.91210       -0.00630
N          1.12750        1.90940       -0.00180
H         -2.05550        1.41370        0.03810
H         -0.21880        4.99950        0.03180
H          2.00550        1.40580       -0.01600
