20
gdb 14308	3.48132	1.5957	1.56481	1.3177	73.8	-0.2467	0.0723	0.319	952.033	0.178447	-349.003454	-348.99568	-348.994736	-349.035333	30.652
C          0.03700        1.56750       -0.00030
C          0.06460        0.04060        0.00050
C          0.80900       -0.58900       -1.20500
C          1.27040       -1.96550       -0.72560
C          2.54280       -2.02720        0.06680
O          3.39260       -0.91750        0.01980
C          1.22180       -1.96670        0.80080
C          0.73490       -0.58950        1.24860
H          1.05500        1.97340        0.02680
H         -0.45330        1.95810       -0.89860
H         -0.50320        1.95970        0.86840
H         -0.96960       -0.32940       -0.02840
H          0.16120       -0.67050       -2.08250
H          1.66730        0.02970       -1.48780
H          0.99010       -2.84250       -1.29840
H          3.06220       -2.98590        0.07780
H          3.80380       -0.81960        0.88520
H          0.90730       -2.84410        1.35550
H          1.57290        0.03740        1.57930
H          0.04000       -0.66500        2.08990
