12
gdb 2671	22.46724	0.86055	0.83756	5.5737	65.18	-0.2798	-0.0517	0.2281	1274.1931	0.088748	-323.344105	-323.336471	-323.335527	-323.376365	24.905
C         -0.01130        1.40180        0.01050
O         -0.01650       -0.01060       -0.03170
C          0.64640       -0.57560        1.07430
C          0.61280       -2.02880        0.97950
C          0.60070       -3.23440        0.92750
C          0.58580       -4.59850        0.86640
N          0.57510       -5.75890        0.81790
H          1.01280        1.80520       -0.00340
H         -0.54250        1.74730       -0.87800
H         -0.52370        1.78370        0.90680
H          1.69850       -0.24280        1.12270
H          0.17470       -0.26640        2.02390
