11
gdb 23842	5.77575	1.57552	1.23786	2.0179	55.77	-0.2447	-0.0755	0.1692	849.8046	0.073496	-438.720766	-438.71484	-438.713896	-438.750963	22.329
F         -0.02940        0.04430        0.00400
C         -0.03220        1.37130        0.01080
N         -1.17980        1.95220        0.02900
N         -1.15020        3.29660        0.03550
C         -0.03800        4.14500        0.02490
O         -0.17020        5.35480        0.03320
C          1.22000        3.40170        0.00460
C          1.22430        2.04870       -0.00240
H         -2.05800        3.74210        0.04990
H          2.13010        3.98850       -0.00440
H          2.13800        1.46510       -0.01750
