16
gdb 1765	4.64423	1.91584	1.68088	1.0467	67.99	-0.2358	0.0395	0.2753	808.0286	0.134707	-288.589678	-288.581659	-288.580715	-288.621281	29.478
C         -0.06520        1.52860       -0.09500
C          0.00400        0.02900        0.06230
N          1.30270       -0.62180       -0.14770
C          0.68760       -0.67050        1.20580
C          1.43140        0.07540        2.29880
C          0.10710       -1.92480        1.62110
C         -0.35510       -2.97750        1.97700
H          0.85020        2.01340        0.24880
H         -0.20020        1.78760       -1.15070
H         -0.91270        1.94010        0.46340
H         -0.86990       -0.49780       -0.31770
H          1.18320       -1.51950       -0.61010
H          1.89510        0.98040        1.90420
H          0.75250        0.34730        3.11290
H          2.22190       -0.55740        2.71310
H         -0.77000       -3.90380        2.28870
