16
gdb 7793	3.32199	1.93289	1.29328	5.7842	61.73	-0.2765	0.0429	0.3194	927.0245	0.131133	-420.931599	-420.924163	-420.923219	-420.96376	27.122
C          0.02590        1.50650        0.10470
C         -0.02300        0.00360       -0.11210
C          0.86030       -0.50420       -1.23880
C          0.83090       -2.01950       -1.20180
O          1.19840       -2.51440        0.09360
C          0.93070       -1.83330        1.23020
O          1.19860       -2.30180        2.29540
O          0.38130       -0.60280        1.13740
H          1.05270        1.83440        0.29180
H         -0.35430        2.02780       -0.77900
H         -0.58700        1.78580        0.96510
H         -1.06050       -0.30780       -0.29960
H          0.49250       -0.14220       -2.20380
H          1.88480       -0.13850       -1.10570
H         -0.17050       -2.39590       -1.44860
H          1.54340       -2.46890       -1.89720
