13
gdb 5667	5.21282	2.18667	1.55532	2.0249	64.33	-0.2112	-0.0152	0.196	752.8581	0.098406	-361.489494	-361.483973	-361.483029	-361.51898	21.73
C         -0.08440        1.49530        0.01110
C          1.40110        1.87080       -0.00190
C          2.19680        0.78010       -0.01480
C          1.33020       -0.39810       -0.01220
C          0.04100        0.01340        0.00250
O         -0.77000       -1.07250        0.00540
C          0.12340       -2.11630       -0.00970
N          1.37750       -1.78410       -0.01910
H         -0.59280        1.89080        0.89940
H         -0.61030        1.89960       -0.86300
H          1.72880        2.90150       -0.00000
H          3.27800        0.77480       -0.02530
H         -0.30840       -3.10440       -0.01060
