15
gdb 5555	3.38173	1.89759	1.27908	1.902	64.49	-0.1908	0.0185	0.2093	914.1869	0.120215	-399.814512	-399.807012	-399.806068	-399.846293	28.141
N         -0.08480        1.40520       -0.09450
C         -0.03190        0.00820       -0.05800
C         -1.09800       -0.84630        0.03060
C         -2.56400       -0.59240        0.03950
O         -2.94270        0.37200       -0.95020
O         -0.64850       -2.14370        0.11520
C          0.70200       -2.09660        0.08310
C          1.14350       -0.81520       -0.02330
H          0.66760        1.81950       -0.62810
H         -0.98090        1.73290       -0.43590
H         -3.09730       -1.54530       -0.08760
H         -2.90200       -0.15320        0.98600
H         -2.62960        0.03750       -1.79830
H          1.20800       -3.04640        0.14220
H          2.17100       -0.48780       -0.06820
