18
gdb 12064	3.98001	1.57677	1.42907	2.7965	67.06	-0.2505	0.0683	0.3187	928.5681	0.152356	-384.894491	-384.886399	-384.885455	-384.926557	30.647
C         -0.03350        1.58470        0.12540
C         -0.01330        0.06370        0.03440
C         -1.40060       -0.52310       -0.19290
O         -1.86490       -0.09260       -1.46440
C          1.04670       -0.57500       -0.95110
C          1.68070       -1.27850        0.25220
O          2.08090       -0.25690        1.17810
C          0.71510       -0.67700        1.18360
H          0.97070        1.96400        0.32910
H         -0.39450        2.01910       -0.81070
H         -0.69790        1.92090        0.93050
H         -1.35090       -1.62360       -0.14130
H         -2.07550       -0.18630        0.61150
H         -2.74830       -0.44720       -1.59960
H          0.58200       -1.24810       -1.67400
H          1.70510        0.12330       -1.47290
H          2.21570       -2.21990        0.30060
H          0.31020       -1.03290        2.12590
