16
gdb 16998	4.00455	2.28704	1.97364	2.0441	68.31	-0.2288	0.0026	0.2314	740.2982	0.131793	-346.559232	-346.553159	-346.552215	-346.588951	25.019
C         -0.03820        1.57260        0.14530
C          1.53740        1.62280        0.15430
C          1.52950        0.12320       -0.19890
O          0.80670       -0.56450        0.84310
C          0.05750        0.06980       -0.19130
C         -0.40970       -0.82960       -1.32020
C          0.92390       -1.30350       -1.90280
C          1.99170       -0.74720       -1.31020
H         -0.55270        1.81280        1.07840
H         -0.46450        2.16520       -0.66760
H          1.93830        2.24930       -0.64520
H          2.02310        1.88090        1.09770
H         -1.02850       -1.66800       -0.98010
H         -1.00100       -0.27660       -2.06060
H          0.97210       -2.06140       -2.67840
H          3.02620       -0.93890       -1.56710
