16
gdb 467	6.55719	3.16956	2.37365	1.5053	56.51	-0.2379	0.0868	0.3246	586.3351	0.144187	-271.647465	-271.641158	-271.640214	-271.67776	22.689
C          0.02000        1.55080        0.07200
C          0.09900        0.03390        0.00840
C          0.78060       -0.54630       -1.23640
C          1.26390       -1.90920       -0.72280
C          1.62910       -1.59190        0.73830
O          0.87910       -0.43640        1.11230
H          1.01900        1.98940       -0.01630
H         -0.60650        1.93770       -0.73840
H         -0.41250        1.87310        1.02320
H         -0.92050       -0.38310        0.08700
H          0.10710       -0.61720       -2.09430
H          1.63060        0.08510       -1.52160
H          0.44960       -2.64020       -0.76490
H          2.10590       -2.31700       -1.28720
H          1.39260       -2.42050        1.41750
H          2.69950       -1.36760        0.84620
