16
gdb 10457	2.92102	1.53672	1.15604	2.5193	71.49	-0.241	-0.0222	0.2188	1040.9106	0.127552	-346.56537	-346.556871	-346.555927	-346.598998	30.651
O         -0.24730        0.89200        1.19130
C          0.04120        1.15590        0.05240
C          1.39930        1.67160       -0.38450
C          1.29340        2.88290       -1.31210
C          1.05210        4.24640       -0.67500
C          2.40020        3.92640       -1.24990
C          0.69380        2.62420       -2.59480
C          0.19710        2.38540       -3.66450
H         -0.69290        1.03150       -0.77380
H          1.97790        1.91300        0.51130
H          1.91460        0.85750       -0.91300
H          0.41670        4.94120       -1.21020
H          0.94240        4.26800        0.40400
H          3.22170        3.73140       -0.56940
H          2.68520        4.39870       -2.18230
H         -0.24410        2.18290       -4.60890
