16
gdb 13786	3.65374	1.22669	1.20034	1.3557	61.59	-0.2543	-0.0312	0.223	1065.1649	0.127506	-420.863385	-420.854539	-420.853595	-420.897782	30.557
C          0.62050       -0.20890       -0.45000
C         -0.31080        0.84980        0.09700
O          0.00270        2.01090        0.22320
C         -1.73170        0.44130        0.42450
O         -2.08830       -0.94100        0.37920
C         -2.11890       -0.28120        1.65310
C         -1.15340       -0.78130        2.69840
O         -1.59190       -2.01220        3.24390
H          1.63370        0.18960       -0.51020
H          0.59370       -1.12490        0.14370
H          0.27830       -0.48830       -1.45440
H         -2.46940        1.12880        0.00920
H         -3.12910       -0.10950        2.02790
H         -0.13830       -0.85730        2.28520
H         -1.11920       -0.06970        3.53020
H         -1.66240       -2.63830        2.51450
