15
gdb 20055	4.52377	1.70025	1.55458	2.7983	60.48	-0.2509	0.0216	0.2724	839.1831	0.120238	-399.783308	-399.776525	-399.775581	-399.815007	24.493
C          0.33650        1.47710        0.28980
O          1.26340        0.41720        0.02220
C         -0.12120        0.09650        0.10480
C         -0.53320       -0.79800        1.25120
C          0.13960       -2.20420        1.22210
N          0.92730       -2.27670        2.46310
C          0.73630       -1.17720        3.05610
O         -0.08630       -0.24290        2.51170
H          0.38400        1.88570        1.29520
H          0.20790        2.19730       -0.51650
H         -0.58290       -0.17730       -0.84650
H         -1.62650       -0.85660        1.28550
H         -0.59140       -3.01780        1.19620
H          0.80240       -2.31920        0.35860
H          1.17190       -0.88540        4.00500
