18
gdb 11864	6.10633	1.06881	1.01038	1.9276	68.68	-0.2572	0.0732	0.3304	1171.8973	0.152854	-384.900302	-384.89221	-384.891265	-384.933156	30.024
O         -0.01390        1.34250       -0.28620
C          0.01000       -0.04880       -0.00360
C         -1.42240       -0.53230        0.06930
C         -2.24890       -0.54800       -1.25380
C         -2.74490       -1.93730       -0.85070
C         -4.11430       -2.45260       -0.82240
O         -3.13670       -2.96000       -1.74450
C         -1.65360       -2.06810        0.21480
H          0.89340        1.65060       -0.36730
H          0.54420       -0.60770       -0.79030
H          0.52210       -0.25620        0.95080
H         -1.94930        0.02370        0.84990
H         -2.99170        0.23820       -1.40140
H         -1.60230       -0.59410       -2.13620
H         -4.41880       -3.14600       -0.03880
H         -4.92160       -1.87440       -1.27100
H         -0.80350       -2.64890       -0.15990
H         -1.93970       -2.45260        1.19650
