17
gdb 1859	4.66538	2.24818	1.8119	1.3262	66.28	-0.2305	0.0176	0.248	766.1778	0.147908	-309.732713	-309.725486	-309.724542	-309.763832	26.947
C          0.19590        1.53770       -0.11980
C         -0.00490        0.03280        0.05670
O          0.55610       -0.66690       -1.05890
C          1.41800       -1.72300       -0.62220
C          2.76200       -1.62850       -1.34410
C          1.48610       -1.55210        0.87360
C          0.68600       -0.56480        1.25530
H          1.26180        1.78310       -0.12960
H         -0.24610        1.86650       -1.06460
H         -0.28530        2.08930        0.69490
H         -1.08980       -0.17130        0.09770
H          0.95320       -2.69210       -0.87700
H          3.26980       -0.69430       -1.08730
H          3.40830       -2.46850       -1.06780
H          2.60850       -1.65550       -2.42660
H          2.10560       -2.17380        1.50810
H          0.51720       -0.21390        2.26590
