11
gdb 1011	8.97887	1.99206	1.63035	4.4099	60.82	-0.2336	-0.0234	0.2101	691.8345	0.081553	-302.353948	-302.348406	-302.347462	-302.383224	20.457
N          0.12450       -1.13850       -0.00480
C          0.02560        0.01690        0.00270
C         -0.07550        1.42380        0.01160
C         -1.18690        2.25230        0.03080
C         -0.71870        3.58500        0.03180
C          0.66160        3.53950        0.01320
N          1.04350        2.23260        0.00100
H         -2.21120        1.91560        0.04260
H         -1.32050        4.47980        0.04470
H          1.39420        4.33050        0.00780
H          1.99040        1.89360       -0.01350
