16
gdb 13303	5.76742	1.27107	1.08603	4.2813	70.45	-0.2254	0.0095	0.2348	1048.8541	0.131435	-342.787564	-342.780124	-342.77918	-342.819813	26.913
N          0.10730       -1.16070       -0.46770
C          0.07950       -0.02930       -0.23750
C          0.03700        1.40560        0.07740
N          1.36090        1.97370        0.17860
C          2.21320        1.44740        1.25500
C          3.10870        2.61500        1.56720
C          2.66000        3.72220        0.98480
C          1.40360        3.44160        0.20580
H         -0.50890        1.90900       -0.72910
H         -0.57040        1.52890        0.99700
H          1.63240        1.14960        2.15070
H          2.75630        0.55340        0.92310
H          3.97950        2.52790        2.20420
H          3.09340        4.71160        1.05540
H          1.42030        3.85170       -0.81370
H          0.52470        3.88830        0.71300
