13
gdb 7871	3.80441	1.82512	1.24293	6.5175	63.54	-0.2372	-0.0868	0.1503	908.8516	0.095146	-398.663468	-398.656148	-398.655204	-398.695124	26.432
C         -0.01960        1.50480        0.05740
C         -0.00190        0.02160       -0.06050
C         -0.03830       -0.74700       -1.17750
C          0.00110       -2.14630       -0.77340
O         -0.01190       -3.16890       -1.41390
C          0.06790       -2.10660        0.80210
O          0.11400       -3.01930        1.58030
N          0.05970       -0.74960        1.10270
H          0.88150        1.86260        0.56960
H         -0.07120        1.97130       -0.92710
H         -0.88150        1.83540        0.64920
H         -0.08800       -0.38440       -2.19210
H          0.09390       -0.38210        2.03960
