20
gdb 11472	5.07022	1.23448	1.07127	1.11	71.84	-0.2489	0.0905	0.3394	1173.0262	0.176501	-386.157697	-386.14888	-386.147936	-386.191701	31.629
C         -0.05470        1.63710        0.13410
C          0.08410        0.14390       -0.16970
C         -1.24240       -0.58910       -0.09810
O         -2.15220       -0.09010       -1.07470
C         -2.85110       -1.19700       -1.62970
C         -2.33290       -2.41600       -0.84120
C         -2.15790       -3.69140       -1.64260
O         -1.06710       -1.95550       -0.37840
H          0.91490        2.13910        0.07210
H         -0.73440        2.11460       -0.57670
H         -0.45140        1.80310        1.14190
H          0.49400       -0.01350       -1.17310
H          0.76710       -0.33370        0.54190
H         -1.70330       -0.46890        0.90240
H         -3.93330       -1.05810       -1.52130
H         -2.61370       -1.28230       -2.69880
H         -2.99140       -2.60020        0.02400
H         -1.48910       -3.51840       -2.49090
H         -1.73100       -4.48210       -1.01990
H         -3.12370       -4.03940       -2.02230
