17
gdb 4487	3.57696	1.71276	1.1825	0.8191	72.94	-0.1991	0.03	0.2291	1024.8989	0.141536	-363.905496	-363.896818	-363.895874	-363.938725	31.077
C          0.13550        1.43730        0.04580
C         -0.06120       -0.03620        0.01680
C         -1.15540       -0.82840       -0.13450
C         -0.70340       -2.19350       -0.07430
C         -1.52460       -3.43810       -0.18880
C          0.64320       -2.12820        0.11070
N          1.60050       -3.13900        0.24080
O          1.05100       -0.81000        0.16840
H          0.80940        1.77090       -0.75200
H         -0.82430        1.94210       -0.08540
H          0.56910        1.76850        0.99670
H         -2.17080       -0.48800       -0.27340
H         -2.04930       -3.48800       -1.15020
H         -0.88570       -4.32010       -0.10210
H         -2.28930       -3.49030        0.59510
H          2.08370       -3.09570        1.13330
H          2.30570       -3.09440       -0.48900
