15
gdb 6520	3.03011	1.85415	1.43457	3.7144	62.88	-0.2667	0.0155	0.2822	892.4291	0.115998	-399.79211	-399.783569	-399.782625	-399.82448	31.585
C         -0.02360        1.53890        0.00020
C          0.05410        0.03160       -0.04180
O         -1.00860       -0.61120       -0.67510
C          1.35700       -0.68090       -0.23210
C          0.68640       -0.71000        1.14120
O          1.21420        0.07890        2.16410
C          0.05780       -1.93500        1.58170
N         -0.43650       -2.90410        1.97490
H          0.82590        1.96540        0.53510
H         -0.04540        1.93380       -1.01980
H         -0.93770        1.86120        0.51180
H         -1.81140       -0.45990       -0.16190
H          1.34170       -1.59000       -0.82120
H          2.26200       -0.08660       -0.29040
H          2.00540       -0.35450        2.50550
