14
gdb 2595	3.0054	2.78965	1.7256	3.2324	58.1	-0.2839	0.0232	0.3071	738.4787	0.113308	-324.57348	-324.566253	-324.565309	-324.604808	25.873
O          0.15080        1.31060       -0.41840
C         -0.00010        0.02300        0.13820
C         -1.42740       -0.50760        0.03790
C         -1.89070       -1.12710       -1.26990
C         -1.65280       -2.00740       -0.08000
C         -2.38340        0.26650        0.78760
N         -3.11080        0.92740        1.39910
H         -0.34760        1.93260        0.12360
H          0.65690       -0.63860       -0.43550
H          0.32770       -0.00830        1.18780
H         -2.91320       -0.94650       -1.57810
H         -1.16560       -1.12840       -2.07580
H         -0.76490       -2.63000       -0.06040
H         -2.51050       -2.42680        0.43170
