15
gdb 19577	3.58357	2.45427	2.06807	2.0371	64.05	-0.2229	-0.0172	0.2057	704.9631	0.120772	-362.614731	-362.608957	-362.608013	-362.64435	23.649
O          0.00910       -0.02830        0.19740
C         -0.00850        1.15260        0.01860
C         -1.08100        2.25830       -0.00480
C         -0.04370        2.97700        0.95140
C          1.01040        2.30750        0.00630
N          0.75400        3.05690       -1.26340
C          0.08900        2.26720       -2.32410
C         -0.74210        2.97430       -1.31490
H         -2.12070        2.08290        0.25870
H         -0.05040        4.06790        0.92560
H         -0.03860        2.59510        1.97400
H          2.06420        2.19980        0.25130
H          0.19380        2.70450       -3.31270
H          0.15180        1.18210       -2.30360
H         -1.27750        3.88370       -1.57330
