16
gdb 10692	2.38757	1.96535	1.51781	4.0336	65.1	-0.2777	0.0149	0.2926	914.0241	0.129549	-379.904114	-379.895642	-379.894698	-379.937079	30.687
C          0.26810        1.11240       -0.55790
C         -0.06780        0.04010        0.47750
O          0.03600        0.52300        1.80570
C         -1.43730       -0.60620        0.24270
C         -1.52790       -1.86730       -0.55420
N         -1.74590       -1.89260        0.89100
C         -2.53780        0.33810        0.22940
N         -3.36800        1.14310        0.21850
H          1.25350        1.53250       -0.34260
H          0.27580        0.69630       -1.57010
H         -0.46830        1.92280       -0.53290
H          0.67140       -0.76880        0.41730
H         -0.55260        1.28210        1.89790
H         -2.41020       -2.06110       -1.15570
H         -0.59680       -2.25130       -0.96430
H         -0.91920       -2.21430        1.39030
