14
gdb 16221	3.18898	2.34988	1.53408	4.4088	57.44	-0.2637	-0.0124	0.2513	801.7501	0.107852	-419.694568	-419.68787	-419.686926	-419.725761	24.585
O          0.04120       -0.00600        0.32070
C          0.03310        1.18910        0.28690
O         -1.10010        1.93300        0.34350
C         -0.81890        3.33700        0.16430
C          0.68560        3.51830        0.44420
C          1.21960        2.12900        0.18090
C          2.58220        1.63420        0.38200
O          2.08320        1.88440       -0.93290
H         -1.08230        3.60920       -0.86290
H         -1.46140        3.88980        0.85150
H          1.15130        4.26760       -0.19770
H          0.85060        3.80020        1.48850
H          3.34660        2.32630        0.73240
H          2.72440        0.58490        0.63160
