15
gdb 19575	3.53159	2.44991	2.0699	4.4247	64.05	-0.2326	0.0024	0.2349	706.9767	0.121087	-362.619397	-362.613653	-362.612708	-362.648955	23.748
O          0.00540        0.00130        0.13200
C         -0.01410        1.17880       -0.04650
C         -1.08800        2.28980        0.00930
C         -0.02690        2.97260        0.95950
C          1.02800        2.32060       -0.01880
C          0.68470        3.05670       -1.32280
N         -0.05920        2.21830       -2.29470
C         -0.80110        3.03510       -1.30300
H         -2.11660        2.10000        0.30680
H         -0.04250        4.06420        0.98070
H         -0.00750        2.56000        1.97020
H          2.06920        2.16110        0.25110
H          1.27200        3.90050       -1.66480
H         -0.07810        2.68670       -3.19900
H         -1.42150        3.86120       -1.62900
