16
gdb 20879	6.87313	1.07083	0.98466	1.2221	65.99	-0.2886	-0.0221	0.2665	1186.2669	0.1313	-379.934436	-379.926824	-379.92588	-379.967301	26.793
C          0.02790        1.53860       -0.05150
C          0.05370        0.00930       -0.01970
C          0.64920       -0.53820        1.29040
C          0.73110       -2.02810        1.30330
N          0.05940       -2.76700        2.14760
O          0.42070       -4.07910        1.80050
C          1.27120       -3.96590        0.78190
N          1.51390       -2.74950        0.41660
H          1.03770        1.95390        0.03930
H         -0.39990        1.90530       -0.98930
H         -0.57260        1.94440        0.77010
H         -0.96250       -0.38450       -0.14090
H          0.63960       -0.37590       -0.86120
H          1.66130       -0.13670        1.42300
H          0.05250       -0.21580        2.14880
H          1.66930       -4.88160        0.36920
