15
gdb 14313	5.51523	1.73093	1.43144	3.8214	71.32	-0.2383	-0.0316	0.2067	854.939	0.120989	-362.654558	-362.648378	-362.647433	-362.684746	24.47
N         -0.07050        1.25610        0.20540
C         -0.03400        0.01420       -0.02860
O          1.12460       -0.68850       -0.36420
C          0.75920       -2.03240       -0.61730
C          0.92920       -3.23300        0.38940
C         -0.59130       -3.58170        0.13780
C         -0.69210       -2.14020       -0.30360
C         -1.14970       -0.95110        0.09100
H          0.86040        1.66620        0.12140
H          1.08230       -2.31350       -1.62510
H          1.66830       -3.99280        0.12760
H          1.08890       -2.87390        1.40690
H         -0.70880       -4.30640       -0.67260
H         -1.19730       -3.88870        0.99050
H         -2.07930       -0.68490        0.57180
