20
gdb 9916	4.91598	0.97651	0.93372	1.9507	72.85	-0.2429	0.081	0.3239	1339.2308	0.174969	-386.119058	-386.109753	-386.108809	-386.153472	33.828
C          0.22220        1.48930        0.01050
C         -0.02490       -0.00640       -0.08740
O          0.78920       -0.53310       -1.11680
C          0.62190       -1.92540       -1.32260
C          1.40650       -2.28460       -2.55690
O          0.99800       -1.56640       -3.68760
C          2.86510       -2.65810       -2.44170
C          1.82050       -3.69760       -2.80800
H          1.27350        1.69110        0.23440
H         -0.02820        1.98290       -0.93310
H         -0.39220        1.92610        0.80330
H          0.21130       -0.50060        0.86990
H         -1.08710       -0.21220       -0.30180
H          0.97380       -2.49800       -0.44970
H         -0.44500       -2.15770       -1.47550
H          1.00560       -0.63880       -3.41960
H          3.51570       -2.31050       -3.23550
H          3.32020       -2.70300       -1.45810
H          1.56090       -4.45740       -2.07840
H          1.78470       -4.02700       -3.84000
