18
gdb 13025	2.57518	2.48241	1.6219	1.2884	67.18	-0.2504	0.0702	0.3207	855.7224	0.153766	-384.932626	-384.92498	-384.924036	-384.963979	29.852
C          0.03910        1.56430       -0.06980
C          0.05240        0.04770        0.02520
O          0.76230       -0.48100       -1.09390
C          1.22520       -1.78930       -0.75760
C          1.49960       -1.74940        0.73370
C          2.25690       -0.53510        1.23730
C          0.74990       -0.55420        1.24470
O          0.03400       -0.61770        2.43770
H          1.05680        1.96480       -0.05170
H         -0.44250        1.88720       -0.99670
H         -0.52220        1.98900        0.76930
H         -0.98530       -0.32950        0.03850
H          0.46090       -2.55080       -0.98200
H          2.10490       -1.99000       -1.37790
H          1.53280       -2.66940        1.30430
H          2.73810       -0.64210        2.20310
H          2.77980        0.09090        0.52100
H          0.12340        0.23050        2.88520
