18
gdb 2014	5.43677	1.97945	1.90209	2.0193	67.67	-0.2238	0.0776	0.3015	769.9586	0.161268	-289.766576	-289.759826	-289.758882	-289.79732	25.879
C          0.03260        1.54260        0.03580
C         -0.02650        0.01100       -0.00650
C         -1.43690       -0.53180        0.01740
C         -2.60380       -0.29990       -0.97930
N         -3.25570       -1.24070        0.04810
C         -1.92040       -2.00160       -0.01350
C         -2.54430       -0.36300        1.09160
H          1.06690        1.89850        0.01730
H         -0.48700        1.98320       -0.82160
H         -0.43790        1.93260        0.94460
H          0.47910       -0.35540       -0.90970
H          0.52810       -0.40570        0.84470
H         -3.06790        0.69000       -1.01630
H         -2.52200       -0.73680       -1.97930
H         -1.78480       -2.57030       -0.93850
H         -1.73300       -2.62530        0.86590
H         -2.40600       -0.85980        2.05680
H         -3.00380        0.62190        1.21550
