19
gdb 1977	7.02721	1.42119	1.31443	1.0893	68.5	-0.2433	0.0869	0.3303	983.4652	0.170887	-310.904876	-310.896892	-310.895948	-310.937038	29.118
C          0.15500        1.33880        0.13010
O         -0.30720        0.06660       -0.26130
C          0.50250       -0.54140       -1.23160
C          1.86840       -1.15390       -0.80650
C          1.53210       -2.38100       -1.70360
C          1.90740       -3.77220       -1.21760
C          0.03860       -1.94520       -1.65980
H          1.15490        1.29230        0.58770
H          0.20060        2.03560       -0.72230
H         -0.55010        1.73040        0.86740
H          0.62730        0.12860       -2.09790
H          2.78510       -0.59610       -1.01300
H          1.83990       -1.42390        0.25470
H          1.93390       -2.22090       -2.71050
H          1.51540       -3.95470       -0.21060
H          1.50280       -4.54750       -1.87820
H          2.99500       -3.90170       -1.18050
H         -0.48770       -2.42470       -0.82830
H         -0.56390       -2.03680       -2.56630
