21
gdb 11621	5.02297	0.90751	0.85537	2.5345	76.41	-0.2432	0.0777	0.3209	1432.6234	0.1873	-366.23135	-366.221862	-366.220918	-366.266387	33.999
C         -0.27630        1.47470        0.39440
C         -0.04690        0.02240       -0.00880
C          0.89200       -0.70250        0.96090
O         -1.33340       -0.58570       -0.06240
C         -1.39480       -1.81900       -0.74630
C         -2.84050       -2.17490       -0.96520
C         -3.24360       -3.60260       -0.99790
N         -3.63960       -2.74360        0.12910
H          0.66900        2.02520        0.41330
H         -0.95340        1.96340       -0.31080
H         -0.72650        1.52490        1.39090
H          0.39760       -0.00480       -1.01920
H          1.07620       -1.73660        0.65510
H          1.86070       -0.19460        1.00530
H          0.46090       -0.71240        1.96740
H         -0.87420       -1.74400       -1.71720
H         -0.90210       -2.62450       -0.17510
H         -3.38840       -1.46000       -1.57500
H         -4.05840       -3.92330       -1.64040
H         -2.47220       -4.35330       -0.84110
H         -3.04070       -2.92110        0.93250
