15
gdb 23701	5.54231	1.42993	1.14475	1.6026	70.83	-0.2327	-0.0069	0.2258	986.4204	0.119338	-370.705172	-370.698123	-370.697179	-370.737726	26.218
C         -0.00970        1.52200        0.01030
C         -0.00860        0.01300        0.00220
C         -0.00380       -0.70020       -1.20020
C          0.02530       -2.09180       -1.21900
C          0.04750       -2.77700       -0.01330
F          0.07280       -4.11530       -0.02070
C          0.03950       -2.10490        1.20000
C          0.01040       -0.71320        1.19660
H          1.01090        1.92490        0.00250
H         -0.52240        1.92760       -0.86700
H         -0.50520        1.91810        0.90170
H         -0.02530       -0.15940       -2.14140
H          0.02610       -2.64690       -2.14960
H          0.05140       -2.67010        2.12440
H         -0.00000       -0.18260        2.14380
