17
gdb 2087	4.72713	2.35609	1.67837	1.2361	66.67	-0.2346	0.0278	0.2624	771.7952	0.149475	-309.731402	-309.724564	-309.72362	-309.761891	25.817
C          0.00510        1.51560        0.06300
C         -0.02120        0.01670       -0.03730
C         -0.06800       -0.64960       -1.19170
C         -0.03970       -2.15400       -1.25430
C          0.43370       -2.72010        0.08540
O         -0.25920       -2.11440        1.16320
C          0.01840       -0.73380        1.27410
H          0.89600        1.86380        0.60230
H          0.00690        1.98160       -0.92590
H         -0.86240        1.89530        0.61840
H         -0.12060       -0.10280       -2.13070
H         -1.03580       -2.54830       -1.49930
H          0.63000       -2.49260       -2.05550
H          0.23980       -3.79360        0.16180
H          1.52000       -2.56150        0.19300
H          1.00170       -0.57320        1.75770
H         -0.73520       -0.32840        1.96120
