16
gdb 11679	3.51218	1.76535	1.48085	1.3991	60.64	-0.257	0.064	0.3211	876.8573	0.129919	-420.800538	-420.793199	-420.792254	-420.832131	28.208
O         -0.00170        1.34210       -0.18480
C          0.01240       -0.05760        0.02510
C         -1.37590       -0.60230        0.17320
C         -2.51600       -0.20230        1.13340
C         -3.12000       -1.06530        0.01300
O         -2.30150       -0.31310       -0.98240
C         -1.93330       -2.06350        0.14740
O         -1.61600       -2.86560       -0.93630
H         -0.64820        1.50830       -0.88110
H          0.51730       -0.59190       -0.79560
H          0.58220       -0.24270        0.94200
H         -2.49580       -0.61040        2.14700
H         -2.79070        0.85090        1.10010
H         -4.16280       -1.24710       -0.24630
H         -1.85920       -2.65320        1.06340
H         -1.72190       -2.29220       -1.71010
