21
gdb 9343	6.78636	0.72657	0.68688	3.3546	77.41	-0.241	0.0384	0.2794	1711.304	0.18729	-366.30932	-366.298908	-366.297964	-366.346193	35.442
C          0.04160        1.53810        0.12940
C          0.01060        0.01590       -0.03260
C         -1.41050       -0.55430       -0.02210
C         -1.45150       -2.07780       -0.18110
C         -2.87710       -2.60010       -0.34700
O         -3.71620       -2.00360       -1.00020
N         -3.13020       -3.79050        0.27370
C         -4.41140       -4.46210        0.18520
H          1.06650        1.92170        0.11330
H         -0.51300        2.03150       -0.67610
H         -0.41390        1.84420        1.07780
H          0.50520       -0.26320       -0.97280
H          0.60080       -0.44960        0.76850
H         -1.91220       -0.27390        0.91360
H         -2.00530       -0.11350       -0.82860
H         -0.89910       -2.36460       -1.08650
H         -0.94750       -2.57120        0.65930
H         -2.39020       -4.22590        0.79790
H         -4.85930       -4.60120        1.17560
H         -5.06520       -3.82930       -0.41600
H         -4.31950       -5.44210       -0.29730
