20
gdb 14034	4.35345	1.61411	1.49503	0.1074	79.05	-0.234	0.03	0.2639	938.9698	0.178985	-311.872566	-311.865395	-311.864451	-311.903926	28.682
C          0.16260        1.35860       -0.58230
C          1.42270        1.61540        0.28520
C          1.31610        0.15150        0.82360
C         -0.15340        0.13190        0.31440
C          2.28640       -0.81570        0.09120
C          3.37430       -1.05550        1.11050
C          3.00850       -0.65290        2.32650
C          1.61570       -0.07000        2.32340
H         -0.58460        2.15390       -0.63240
H          0.41870        1.06300       -1.60350
H          2.34910        1.89540       -0.22400
H          1.22640        2.34730        1.07520
H         -0.85820        0.38460        1.11320
H         -0.49980       -0.78350       -0.17440
H          1.78820       -1.76270       -0.16730
H          2.65960       -0.40010       -0.85270
H          4.31340       -1.53890        0.86390
H          3.60280       -0.75560        3.22790
H          1.52980        0.85900        2.90020
H          0.89940       -0.77560        2.77280
