14
gdb 2476	5.29239	2.73393	2.46416	2.0133	56.61	-0.2197	-0.0129	0.2069	589.838	0.115987	-324.55226	-324.547035	-324.546091	-324.581099	20.824
O          0.03210        0.05030       -0.04290
C          0.02780        1.24970       -0.00290
C         -1.16870        2.23410        0.03350
N         -0.46130        3.54540        0.07500
C          0.61930        3.29860       -0.96400
C          1.18770        2.23880        0.02640
C          0.62560        3.23020        1.08860
H         -1.79950        2.15150       -0.85590
H         -1.79400        2.09240        0.91940
H          0.25960        2.97480       -1.94460
H          1.25390        4.18160       -1.06520
H          2.19770        1.83390        0.00980
H          1.26110        4.10470        1.24440
H          0.27190        2.84190        2.04770
