17
gdb 6789	7.69741	0.70957	0.65781	1.2513	61.94	-0.2657	0.0582	0.3239	1622.0677	0.140879	-438.174716	-438.165127	-438.164183	-438.210452	32.507
N         -0.18480        1.28820        0.12220
C          0.05400       -0.05550        0.03350
O          1.14650       -0.57030       -0.01610
O         -1.12040       -0.73280        0.04510
C         -0.99610       -2.16260        0.01380
C         -2.40150       -2.74080        0.02330
C         -2.39550       -4.26420       -0.00590
O         -3.74640       -4.69700        0.00180
H          0.59100        1.88980       -0.09450
H         -1.11240        1.62770       -0.06770
H         -0.43940       -2.45650       -0.88270
H         -0.41340       -2.49200        0.88090
H         -2.93460       -2.40320        0.91840
H         -2.96020       -2.37010       -0.84280
H         -1.86730       -4.61960       -0.90590
H         -1.84630       -4.65330        0.86720
H         -3.75400       -5.65840       -0.01310
