14
gdb 4970	3.35473	2.34947	1.39362	1.8012	65.84	-0.2546	-0.0256	0.229	836.4676	0.109614	-378.797227	-378.790516	-378.789572	-378.828069	25.032
C         -0.03770        1.54830       -0.02470
C         -0.00430        0.04760       -0.02090
C         -0.09680       -0.73110       -1.16380
N         -0.06750       -2.07320       -1.16900
C          0.05930       -2.64230        0.02240
N          0.15850       -2.01890        1.20080
C          0.12590       -0.69360        1.16550
O          0.22310       -0.03300        2.33210
H          0.87740        1.96680        0.40760
H         -0.14420        1.93150       -1.04290
H         -0.87110        1.92830        0.57590
H         -0.20040       -0.24870       -2.13440
H          0.08600       -3.72880        0.05140
H          0.30410       -0.70970        3.02000
