19
gdb 17437	2.68243	2.5494	1.86232	1.7925	74.11	-0.2296	0.0836	0.3132	829.3136	0.16573	-327.869677	-327.862286	-327.861342	-327.900728	29.328
C         -0.05560        1.57540        0.00940
C          0.09360        0.06510        0.06330
N          1.11490       -0.55890       -0.84670
C          2.38070       -0.62740       -0.02700
C          2.14160       -0.04790        1.36420
C          0.72430       -0.68300        1.26710
C         -0.06070       -1.04990        2.49840
C          1.31860       -1.64250        0.15110
H          0.88560        2.09600        0.20220
H         -0.40330        1.87780       -0.98380
H         -0.79430        1.91820        0.74260
H         -0.86330       -0.40720       -0.19130
H          3.30270       -0.69230       -0.58940
H          2.75300       -0.57410        2.10330
H          2.22230        1.03130        1.52910
H         -0.32930       -0.15410        3.07110
H         -0.98980       -1.56960        2.23880
H          0.51530       -1.70400        3.16200
H          1.24610       -2.70010       -0.06780
