16
gdb 9798	3.12124	1.75026	1.35694	2.1503	66.15	-0.2517	0.022	0.2737	933.0647	0.127497	-383.678912	-383.670317	-383.669373	-383.711622	32.422
O         -0.37080        1.31540        0.04310
C         -0.01810       -0.06030        0.00870
C          0.77530       -0.39350       -1.18190
C          1.47530       -0.64760       -2.12680
C          0.72150       -0.52310        1.27190
O          0.99760       -1.89390        1.25730
C          1.68110        0.39870        1.97830
C          0.34080        0.03940        2.59890
H          0.40250        1.82260       -0.22620
H         -0.96670       -0.60940       -0.03220
H          2.06680       -0.87240       -2.98030
H          1.59990       -2.05830        0.52070
H          2.56910       -0.05990        2.39780
H          1.81500        1.41260        1.61690
H         -0.42250        0.80790        2.61990
H          0.34000       -0.65200        3.43340
