22
gdb 15901	2.52468	1.76191	1.17909	1.2398	78.1	-0.2596	0.0745	0.3341	1102.9626	0.199433	-350.19569	-350.186305	-350.18536	-350.229271	35.096
C         -1.00090        0.66830       -1.51190
C          0.08980       -0.25090       -0.98030
C          1.56770        0.02460       -1.36960
C          1.99610       -0.43530        0.04970
C          3.15730        0.26690        0.74160
C          0.51980       -0.21700        0.52620
C          0.26490        1.09080        1.25770
O         -1.12700        1.16010        1.54580
H         -0.78670        1.71960       -1.29460
H         -1.08560        0.56800       -2.60030
H         -1.97250        0.43400       -1.06830
H         -0.15980       -1.28680       -1.23720
H          1.98240       -0.51020       -2.22870
H          1.74910        1.09630       -1.51370
H          2.19340       -1.51310        0.03290
H          3.01930        1.35300        0.77260
H          3.28760       -0.08330        1.77180
H          4.09460        0.07320        0.20780
H          0.10280       -1.01900        1.14350
H          0.85780        1.11380        2.18600
H          0.58470        1.95200        0.64970
H         -1.30320        2.00210        1.97560
