11
gdb 4639	5.54354	1.4737	1.16421	3.1432	57.03	-0.2456	-0.0755	0.1702	911.6733	0.072755	-434.601862	-434.595419	-434.594474	-434.632788	23.119
O         -0.01460       -0.06070       -0.00010
C         -0.03480        1.15240        0.01020
C          1.16990        1.95900        0.00260
C          1.34460        3.29890        0.01130
O          2.66380        3.60270       -0.00170
C          3.40180        2.39710       -0.01980
O          4.59440        2.35370       -0.03420
N          2.45140        1.41050       -0.01670
H         -0.98000        1.73100        0.02560
H          0.64330        4.11670        0.02600
H          2.65390        0.42500       -0.02700
