17
gdb 4909	5.04114	1.24357	1.06444	0.9465	71.14	-0.1788	0.0647	0.2435	1118.2608	0.142528	-363.902024	-363.893722	-363.892777	-363.934853	30.766
C          0.03880        1.55160       -0.15510
C         -0.02170        0.03810        0.11280
C         -1.41410       -0.52210        0.07440
C         -2.12230       -1.01790        1.13920
N         -3.36930       -1.41330        0.68060
C         -3.44650       -1.17280       -0.65820
O         -4.60280       -1.50480       -1.28980
C         -2.26270       -0.62050       -1.08150
H          1.07070        1.91730       -0.12380
H         -0.37470        1.79460       -1.13910
H         -0.54280        2.10160        0.59140
H          0.60870       -0.47770       -0.62390
H          0.42220       -0.17380        1.09270
H         -1.85380       -1.12630        2.17740
H         -4.10710       -1.82520        1.22380
H         -4.51190       -1.27610       -2.21940
H         -2.02210       -0.32400       -2.09150
