22
gdb 6890	2.70569	1.40961	1.24285	1.7849	78.56	-0.2511	0.068	0.3191	1137.0534	0.198258	-350.195997	-350.185967	-350.185023	-350.230187	36.991
C         -0.22820        0.96160       -1.95930
C         -0.00110       -0.19840       -1.01040
C          1.35680       -0.53270       -0.40520
C          2.60650        0.26000       -0.71150
O          3.25470       -0.19920       -1.89270
C          0.22710       -0.03540        0.48080
C          0.28150        1.34710        1.10970
C         -0.42150       -1.06500        1.39110
H          0.41440        1.81980       -1.74950
H         -0.04170        0.65970       -2.99700
H         -1.26510        1.31230       -1.90790
H         -0.59650       -1.07050       -1.27380
H          1.57230       -1.59600       -0.32070
H          2.39800        1.33720       -0.77380
H          3.34120        0.12710        0.09060
H          2.60450       -0.17070       -2.60210
H          0.70860        2.10740        0.45360
H         -0.72640        1.67990        1.38500
H          0.88020        1.33040        2.02800
H          0.13070       -1.16370        2.33360
H         -1.45050       -0.77800        1.63990
H         -0.45470       -2.05230        0.92020
