13
gdb 20709	7.00144	1.36789	1.15251	3.9865	64.48	-0.2802	-0.0632	0.2169	975.6684	0.096256	-394.807036	-394.80002	-394.799076	-394.83869	24.409
C         -0.03820        1.48180       -0.06760
C          0.00460       -0.00750        0.02250
N         -0.04000       -0.78820       -1.04320
N          0.02150       -2.03730       -0.53750
C         -0.00260       -3.15200       -1.40340
O          0.04810       -4.28770       -1.03790
N          0.10370       -2.11180        0.79920
C          0.09460       -0.84670        1.17150
H          0.85880        1.92840        0.37390
H         -0.10430        1.79270       -1.11160
H         -0.90210        1.88380        0.47180
H         -0.07350       -2.80050       -2.44520
H          0.15060       -0.57580        2.21500
