20
gdb 15945	3.33357	1.73856	1.42052	1.3844	74.31	-0.2592	0.0696	0.3289	960.702	0.177548	-348.973882	-348.965754	-348.96481	-349.007217	30.593
O         -0.07190        1.43970        0.15950
C          0.01410        0.01900        0.16770
C         -1.37320       -0.52810       -0.04280
C         -2.39050       -0.36990        1.12220
C         -2.69360       -1.89860        1.07550
C         -1.69070       -2.07170       -0.09600
C         -2.30030       -1.89080       -1.51130
C         -2.00240       -0.36140       -1.45480
H          0.81120        1.79620        0.29340
H          0.68340       -0.34310       -0.63120
H          0.41910       -0.34890        1.12570
H         -1.92660       -0.04370        2.05690
H         -3.23260        0.29590        0.91570
H         -2.39870       -2.42650        1.98600
H         -3.72610       -2.17860        0.84490
H         -0.92470       -2.84180        0.01840
H         -1.74520       -2.41080       -2.29630
H         -3.35340       -2.17440       -1.60110
H         -2.87070        0.30120       -1.50000
H         -1.28530       -0.02600       -2.20880
