22
gdb 7642	4.3081	1.10258	0.96151	1.5227	78.72	-0.2544	0.0738	0.3282	1294.8346	0.199002	-350.20368	-350.194272	-350.193328	-350.23766	35.208
C          0.03420        1.56210       -0.02230
C          0.02810        0.03920        0.11970
O          0.68380       -0.37390        1.31870
C         -1.37200       -0.55440        0.03000
C         -2.11990       -0.53040       -1.33380
C         -2.63700       -1.96750       -1.03740
C         -2.70010       -2.97790       -2.17210
C         -1.51690       -2.10000        0.03340
H          1.05460        1.94780        0.05290
H         -0.38660        1.87390       -0.98390
H         -0.56630        2.02710        0.77010
H          0.63960       -0.39610       -0.68200
H          0.18390       -0.01440        2.06010
H         -2.00040       -0.10830        0.81360
H         -2.85800        0.25740       -1.50450
H         -1.41240       -0.53000       -2.17180
H         -3.61300       -1.90740       -0.54160
H         -1.73370       -3.05340       -2.68390
H         -2.95890       -3.97640       -1.80200
H         -3.45130       -2.69500       -2.91840
H         -0.62110       -2.57730       -0.37970
H         -1.76340       -2.59210        0.97690
