18
gdb 17772	5.28625	1.16213	1.15531	2.7009	73.05	-0.2477	-0.0197	0.228	1089.1459	0.154177	-347.758513	-347.751213	-347.750269	-347.791088	27.371
O         -0.47750        0.73500        0.79030
C          0.11430        1.00550       -0.22250
C          1.44500        1.72370       -0.28640
C          1.38020        2.92990       -1.22490
C          0.75210        4.29340       -0.78030
C          2.03500        4.56060        0.06210
C          2.53620        3.97870       -1.29320
C          1.51240        4.92920       -1.98050
H         -0.30650        0.73150       -1.21950
H          1.74810        1.97180        0.73230
H          2.17770        1.00980       -0.69260
H          1.03900        2.59970       -2.21430
H         -0.28190        4.47630       -0.48440
H          2.27340        5.61080        0.24970
H          2.18850        3.96560        0.96310
H          3.56920        3.79400       -1.59340
H          1.17550        4.65020       -2.98290
H          1.72220        5.99930       -1.90950
