15
gdb 20358	6.21613	1.38704	1.24594	4.0975	67.09	-0.2362	0.0009	0.2371	960.3198	0.121258	-358.829751	-358.823068	-358.822123	-358.86153	24.89
C         -0.16940        1.35500       -0.30300
C          1.23470        1.08130        0.15540
C          0.22810       -0.05020        0.10180
C         -0.29440       -0.66830        1.33320
C         -0.59330       -0.13050        2.56760
N         -1.03430       -1.19010        3.28800
N         -1.01870       -2.32150        2.56620
N         -0.57100       -2.00760        1.38390
H         -0.83220        1.89580        0.36430
H         -0.34290        1.54810       -1.35570
H          2.03070        1.08540       -0.58080
H          1.53360        1.43460        1.13670
H          0.34860       -0.77170       -0.69820
H         -0.53400        0.86350        2.97700
H         -1.35190       -1.21820        4.24360
