17
gdb 5326	4.62292	1.62121	1.23316	2.8167	71.87	-0.1742	0.0403	0.2145	975.0639	0.143699	-360.069657	-360.061719	-360.060775	-360.101874	29.194
C          0.01790        1.38100        0.03190
N          0.28290       -0.04030        0.02800
C         -0.18590       -0.76680        1.19750
C          0.14830       -0.67450       -1.20150
C         -0.02590       -0.10940       -2.44870
N         -0.02320       -1.18430       -3.32700
C          0.12750       -2.30990       -2.58970
N          0.23360       -2.04470       -1.30620
H          0.64520        1.88050       -0.71400
H         -1.03680        1.62970       -0.18610
H          0.26920        1.79320        1.01300
H         -1.28400       -0.73890        1.30690
H          0.12320       -1.80850        1.11800
H          0.25890       -0.32770        2.09620
H         -0.14700        0.90250       -2.79050
H         -0.12520       -1.13080       -4.32560
H          0.15390       -3.29470       -3.03160
