13
gdb 11938	3.36088	1.87254	1.53468	5.4382	60.55	-0.2509	-0.0085	0.2424	827.6868	0.094274	-398.554583	-398.547294	-398.54635	-398.586239	26.465
O         -0.03560        1.43780        0.09950
C         -0.02360        0.07140        0.03860
C         -0.28670       -0.75000       -1.19000
C         -1.16370       -0.96330        0.03010
O         -0.49290       -1.78860        0.97870
C          0.56550       -0.80010        1.14130
C         -2.58240       -0.85830        0.04560
N         -3.73500       -0.75110        0.04770
H          0.28560        1.79770       -0.73350
H         -0.77350       -0.20520       -1.99420
H          0.37710       -1.55420       -1.49710
H          1.56160       -1.22540        0.98120
H          0.50130       -0.32670        2.12610
