20
gdb 15198	8.67388	0.665	0.6506	2.3213	72.86	-0.2436	0.0777	0.3213	1732.9561	0.175206	-386.107078	-386.097547	-386.096602	-386.142608	33.227
O         -0.13460        1.37050       -0.01560
C         -0.11250       -0.01240        0.30320
C         -1.38610       -0.63610       -0.25170
C         -1.48020       -2.12790        0.03410
O         -2.68660       -2.61230       -0.53080
C         -2.87810       -3.97630       -0.33340
C         -3.49380       -4.45600        0.95790
C         -4.29190       -4.45540       -0.33260
H          0.66760        1.77130        0.33140
H          0.76960       -0.50780       -0.13550
H         -0.06220       -0.16840        1.39370
H         -2.25350       -0.12770        0.18250
H         -1.42600       -0.47050       -1.33340
H         -0.61810       -2.66160       -0.40150
H         -1.46430       -2.32240        1.11880
H         -2.11800       -4.60770       -0.79710
H         -3.16950       -5.40330        1.37490
H         -3.74700       -3.69710        1.68980
H         -5.05590       -3.69390       -0.43870
H         -4.51960       -5.40110       -0.81100
