11
gdb 427	5.44207	3.89064	2.47394	2.9069	42.57	-0.2481	0.0012	0.2493	503.6554	0.085902	-322.439472	-322.433831	-322.432887	-322.468624	19.618
N          0.06690        1.49980        0.17120
C         -0.02360        0.06920        0.00450
C         -1.42600       -0.55460       -0.15680
O         -1.01000       -1.20340       -1.40030
C          0.22670       -0.60150       -1.36980
O          1.07680       -0.63970       -2.19950
H          1.03590        1.78220        0.27480
H         -0.29220        1.98390       -0.64670
H          0.56440       -0.42030        0.78600
H         -1.73640       -1.29120        0.58600
H         -2.22460        0.16780       -0.34220
