19
gdb 12807	3.35313	2.01953	1.54331	1.5798	76.59	-0.2308	0.0202	0.2509	898.0042	0.167489	-327.920547	-327.913197	-327.912253	-327.951724	29.199
C         -0.11160        1.53290        0.04300
C          0.03000        0.02550        0.00260
N         -0.78370       -0.78320        0.94880
C          0.68620       -0.69370        1.12490
C          1.47570       -1.96720        0.83990
C          2.10690       -1.96890       -0.56700
C          1.15530       -1.45510       -1.62100
C          0.19960       -0.56570       -1.35600
H          0.74170        2.02400       -0.43710
H         -1.01730        1.85490       -0.48510
H         -0.17420        1.89550        1.07470
H         -1.24280       -0.15650        1.60840
H          1.04190       -0.08260        1.95190
H          2.25420       -2.10670        1.59750
H          0.78830       -2.81470        0.92270
H          3.02020       -1.35540       -0.57340
H          2.43450       -2.98290       -0.82160
H          1.27240       -1.83860       -2.63160
H         -0.47550       -0.22250       -2.13700
