18
gdb 9602	4.77627	1.18926	1.10639	1.5917	75.39	-0.2407	0.0473	0.2879	1110.3652	0.151084	-347.756505	-347.747325	-347.746381	-347.789891	33.813
C         -0.09980        1.60500        0.01690
C         -0.04170        0.09200        0.00550
C         -1.30440       -0.58510       -0.47860
O         -1.51000       -0.22320       -1.83830
C          1.26170       -0.58750       -0.30290
C          0.70960       -0.64300        1.11670
C          1.34810        0.06970        2.18330
C          1.87980        0.65730        3.08910
H          0.83670        2.03710        0.37590
H         -0.29730        1.97600       -0.99230
H         -0.90310        1.96010        0.67290
H         -1.20650       -1.67760       -0.37200
H         -2.15390       -0.26670        0.14690
H         -2.38270       -0.52920       -2.10190
H          1.24780       -1.50790       -0.87630
H          2.13300        0.03610       -0.46580
H          0.28440       -1.59840        1.41400
H          2.35040        1.17590        3.88680
