20
gdb 9839	3.16663	1.31799	1.23935	1.5827	70.4	-0.2596	0.0732	0.3329	1098.8849	0.174697	-386.121011	-386.111519	-386.110575	-386.155092	34.642
C          0.28530        1.67720       -0.13470
C          0.12730        0.15810        0.00790
C          0.61050       -0.57920       -1.25360
O         -0.12310       -0.21270       -2.41350
C          0.79630       -0.39830        1.26110
C          2.30110       -0.27520        1.38790
C         -0.01040       -0.53970        2.48350
O          0.27630       -1.67850        1.66800
H          1.33890        1.96360       -0.22080
H         -0.22130        2.01600       -1.04140
H         -0.13960        2.20720        0.72350
H         -0.94260       -0.07190        0.11300
H          1.65050       -0.31570       -1.47520
H          0.57100       -1.66420       -1.08010
H         -1.02120       -0.54270       -2.30740
H          2.61650        0.77270        1.38020
H          2.63700       -0.73030        2.32260
H          2.81090       -0.78580        0.56460
H          0.47760       -0.52870        3.45770
H         -1.05120       -0.21680        2.48760
