20
gdb 5867	4.02735	1.00871	0.99054	4.4367	76.2	-0.2421	0.0263	0.2684	1278.0444	0.175079	-345.195733	-345.185965	-345.185021	-345.23028	35.563
C         -0.06960        1.56060        0.07370
C          0.02590        0.02600        0.05300
C          0.68940       -0.48160        1.35080
C         -1.38540       -0.56930       -0.06800
N          0.74120       -0.39980       -1.17190
C          2.13970       -0.00470       -1.29600
C          2.69870       -0.50690       -2.55510
N          3.14970       -0.92130       -3.53440
H          0.90430        2.03420        0.23400
H         -0.48200        1.93040       -0.86920
H         -0.72180        1.88550        0.88960
H          0.09960       -0.19300        2.22670
H          0.76910       -1.57440        1.34710
H          1.69350       -0.06740        1.48670
H         -1.86920       -0.22550       -0.98610
H         -1.34740       -1.66460       -0.09290
H         -2.00390       -0.27890        0.78620
H          0.67500       -1.40890       -1.26200
H          2.20990        1.08840       -1.31210
H          2.80170       -0.34870       -0.48220
