16
gdb 15256	3.30484	1.4381	1.23259	3.7198	63.17	-0.2411	-0.0186	0.2224	1018.6973	0.1278	-420.843974	-420.83528	-420.834336	-420.877499	30.371
C          0.06210        1.13100       -0.51010
O         -0.17990        0.13010        0.46900
C         -1.36970       -0.54690        0.26510
C         -1.42840       -1.65670       -0.73340
O         -0.28370       -1.87030       -1.49350
C         -1.42520       -1.97970        0.77650
C         -0.21360       -2.58590        1.38390
O         -0.26210       -3.43740        2.24070
H          1.00020        1.61720       -0.23490
H          0.15480        0.69430       -1.51070
H         -0.74040        1.88320       -0.51640
H         -2.27030        0.05570        0.39940
H         -2.37440       -1.82770       -1.24710
H         -0.21250       -2.81110       -1.68700
H         -2.35640       -2.32470        1.21200
H          0.74980       -2.21030        0.99220
