14
gdb 17910	3.04863	2.43137	2.2267	2.654	56.17	-0.2377	-0.0312	0.2065	698.5905	0.109304	-419.679793	-419.67385	-419.672906	-419.709865	22.881
O          0.00330        0.04050        0.00390
C         -0.01120        1.23510        0.01030
C         -1.14590        2.27440        0.03160
C         -0.67850        3.07080        1.26480
O          0.77510        3.03740        1.17230
C          1.08200        2.31060        0.00050
O          0.74250        3.04930       -1.15470
C         -0.71320        3.08350       -1.20600
H         -2.16760        1.90430        0.04400
H         -1.01280        4.11430        1.25000
H         -0.99210        2.60660        2.20600
H          2.13310        2.03730       -0.01560
H         -1.05310        2.62910       -2.14280
H         -1.04670        4.12680       -1.17100
