14
gdb 5775	6.32267	1.40868	1.24316	4.4703	64.33	-0.2204	0.0187	0.2391	934.8601	0.109371	-378.729081	-378.722486	-378.721542	-378.760537	24.099
C          0.13480        1.56220        0.03910
O          1.16790        0.59780       -0.15500
C         -0.15730        0.11360        0.05120
C         -0.38160       -0.63540        1.30030
C          0.38730       -0.80680        2.42490
N         -0.25940       -1.60010        3.34380
C         -1.40670       -1.91080        2.78880
N         -1.53330       -1.35660        1.54740
H          0.16660        2.09560        0.98710
H         -0.11860        2.15890       -0.83670
H         -0.62610       -0.30670       -0.84170
H          1.37530       -0.41360        2.60560
H         -2.17960       -2.52640        3.22410
H         -2.32260       -1.44730        0.92940
