17
gdb 19940	3.68811	2.33623	1.89696	3.0956	66.5	-0.2338	0.0678	0.3016	754.8225	0.145494	-363.824827	-363.818793	-363.817849	-363.854829	24.533
C          0.11450        1.58990        0.14230
O          1.46310        1.53540       -0.36950
C          1.37220        0.11520       -0.60520
C          2.36260       -0.74700        0.20240
C          1.60950       -1.17860        1.45210
N          1.15360       -0.05660        2.29170
C          0.19450       -0.71340        1.37730
C         -0.02170        0.05240        0.08300
H          0.07620        2.03160        1.14220
H         -0.55320        2.13390       -0.53780
H          1.41270       -0.10220       -1.67980
H          2.65720       -1.63070       -0.37480
H          3.26470       -0.17210        0.43160
H          1.87380       -2.11390        1.93670
H          0.99300       -0.38540        3.24050
H         -0.61940       -1.29110        1.80370
H         -0.85790       -0.34270       -0.49560
