14
gdb 3622	5.41252	3.73979	3.5436	1.8018	58.85	-0.2259	0.0811	0.307	490.0515	0.11619	-287.347	-287.342562	-287.341618	-287.374779	18.888
C         -0.03610        1.56380       -0.11460
C          1.50120        1.45740        0.03710
C          1.95750        0.48300       -1.06750
C          2.03890       -0.69130       -0.16800
C          1.32180        0.15070        0.91720
C          0.01100        0.04000        0.07890
N          0.84890       -0.53510       -1.06010
H         -0.49360        2.05730        0.74870
H         -0.45130        1.96170       -1.04480
H          2.14320        2.29250        0.30990
H          2.44400        0.68760       -2.01280
H          2.66790       -1.57320       -0.16210
H          1.41170        0.11890        1.99960
H         -0.85710       -0.57210        0.31850
