14
gdb 11106	5.81778	1.16222	1.07036	2.9085	66.13	-0.2711	-0.012	0.2591	1085.5194	0.106624	-378.72257	-378.714725	-378.713781	-378.755479	26.986
C          0.30250        1.44300       -0.01660
N          0.38540       -0.00940        0.05530
C          0.47230       -0.68360       -0.98570
C          0.57190       -2.15900       -1.30690
C          0.57360       -1.66570       -2.77890
O          0.49920       -0.28470       -2.33070
C          1.77570       -1.93290       -3.56370
N          2.72170       -2.16790       -4.18370
H          1.13310        1.87230        0.55290
H          0.32750        1.84340       -1.03610
H         -0.62270        1.76880        0.47020
H          1.49100       -2.64280       -0.97560
H         -0.29080       -2.76100       -1.02040
H         -0.31360       -1.93190       -3.35970
