18
gdb 6730	5.46107	0.80677	0.72272	2.2758	77.92	-0.239	-0.0111	0.2279	1595.3131	0.14998	-347.80625	-347.796026	-347.795082	-347.846095	33.781
C         -0.71620        1.00930       -0.29910
C          0.67130        0.50670        0.14050
C          1.34640       -0.26970       -0.89390
C          1.87330       -0.90970       -1.76630
C          2.50830       -1.68840       -2.81500
C          1.53950       -2.49500       -3.70060
C          2.20850       -3.32160       -4.78620
O          0.34540       -2.47370       -3.54710
H         -0.63410        1.65700       -1.17610
H         -1.36570        0.17030       -0.56160
H         -1.18940        1.57730        0.50760
H          1.29890        1.36150        0.42450
H          0.56920       -0.10490        1.04620
H          3.10050       -1.04440       -3.48170
H          3.23590       -2.39750       -2.39380
H          2.89560       -4.05110       -4.34250
H          1.44980       -3.84260       -5.37050
H          2.80610       -2.68140       -5.44470
