11
gdb 1218	6.60328	1.4864	1.41258	4.0484	47.92	-0.2932	0.0042	0.2974	825.4474	0.078117	-376.622353	-376.615107	-376.614163	-376.655056	24.187
N         -0.09100        1.24880        0.06720
C         -0.03200       -0.07680       -0.21120
O          0.69280       -0.60790       -1.01540
O         -0.91250       -0.74640        0.60620
C         -0.97920       -2.15330        0.40040
C         -2.23510       -2.52000       -0.26440
N         -3.22380       -2.82190       -0.77900
H          0.39820        1.86990       -0.55290
H         -0.84580        1.60910        0.62490
H         -0.13040       -2.47700       -0.20880
H         -0.93400       -2.63450        1.38120
