16
gdb 7294	4.46336	1.11637	1.02465	4.9191	65.39	-0.2628	0.0112	0.274	1138.2771	0.129429	-379.980046	-379.970816	-379.969872	-380.014777	31.78
C         -0.05670        1.63710        0.15430
C         -0.04630        0.10450        0.00920
C          0.77480       -0.57850        1.12470
C          2.16740       -0.14110        1.14440
N          3.26790        0.21220        1.14140
C         -1.48460       -0.42360        0.08630
N         -2.13840       -0.48980       -1.10650
O         -2.00640       -0.73210        1.14090
H          0.96180        2.03330        0.13010
H         -0.62540        2.10310       -0.65530
H         -0.51960        1.92580        1.10300
H          0.39040       -0.15860       -0.96130
H          0.30380       -0.36900        2.08970
H          0.75110       -1.66610        1.00060
H         -1.70890       -0.22440       -1.97490
H         -3.10700       -0.76530       -1.10750
