13
gdb 8252	6.16355	1.13169	1.01454	5.1713	58.76	-0.2935	-0.0082	0.2853	1073.3511	0.095446	-398.639136	-398.631938	-398.630994	-398.671409	25.272
O          0.18570        0.12130       -0.74900
C          0.03330        1.14530       -0.17220
C         -1.11450        2.08760        0.19910
C          0.00550        2.92230        0.84610
C         -0.03770        3.07820        2.36430
C          1.17110        3.69930        2.90250
N          2.12180        4.20400        3.32080
O          0.99480        1.92670        0.43060
H         -1.62530        2.53700       -0.65320
H         -1.84860        1.65350        0.88100
H          0.21680        3.87600        0.35790
H         -0.90180        3.69660        2.63480
H         -0.17730        2.09670        2.83080
