16
gdb 12149	6.13343	1.29479	1.26827	0.0066	65.24	-0.2596	0.052	0.3116	979.9134	0.128925	-383.680143	-383.672949	-383.672005	-383.714719	27.176
C          0.33950        1.48400        0.00670
O          1.24650        0.37070       -0.00800
C         -0.14380        0.10470        0.00400
C         -0.82770       -0.70710        1.11730
C         -1.53530       -1.50480        0.00870
C         -2.02430       -2.88210        0.00600
O         -2.92680       -1.76510        0.02070
C         -0.84910       -0.69510       -1.10460
H          0.32530        2.06180        0.93030
H          0.30760        2.07170       -0.91010
H         -0.13180       -1.27870        1.73740
H         -1.50950       -0.14400        1.76030
H         -2.01240       -3.46000       -0.91750
H         -1.99470       -3.46990        0.92290
H         -1.54310       -0.12520       -1.72830
H         -0.16530       -1.25990       -1.74410
