22
gdb 17626	2.68231	1.54839	1.19927	1.4596	77.67	-0.2564	0.0739	0.3303	1120.9981	0.198709	-350.196484	-350.186852	-350.185908	-350.230541	36.057
C         -0.18440        1.52710        0.12250
C          0.01070        0.01430        0.02480
O          0.59300       -0.34440       -1.22970
C          0.79160       -0.60760        1.21030
C          0.70550       -2.14000        1.14690
C          2.24160       -0.15300        1.26300
C          2.66440        1.10100        1.99110
C          3.02520       -0.25270        2.54790
H          0.77680        2.05210        0.11020
H         -0.77960        1.88100       -0.72410
H         -0.70170        1.80210        1.04760
H         -0.97830       -0.46080        0.00470
H          1.37560        0.20320       -1.35250
H          0.29820       -0.26740        2.13260
H          1.11760       -2.50200        0.20040
H          1.26330       -2.60150        1.96690
H         -0.33410       -2.47970        1.20860
H          2.80880       -0.39270        0.36590
H          3.45270        1.71220        1.56440
H          1.89890        1.66860        2.50940
H          2.49770       -0.58920        3.43500
H          4.06030       -0.57250        2.50200
