14
gdb 20703	3.38532	2.37537	1.40784	1.3394	68.66	-0.2255	-0.0644	0.1611	831.1987	0.109275	-374.915104	-374.908248	-374.907304	-374.946119	25.653
C          0.12520        1.47390        0.03190
C          0.00660       -0.01380       -0.00990
N         -0.10700       -0.63170       -1.14280
C         -0.21290       -2.00600       -1.11980
N         -0.21130       -2.76220       -0.06900
N         -0.09270       -2.10930        1.10480
C          0.02470       -0.73590        1.28040
N          0.13790       -0.11050        2.39410
H          1.05430        1.76180        0.53500
H          0.09700        1.87870       -0.97960
H         -0.68250        1.89750        0.63800
H         -0.30710       -2.50610       -2.07600
H         -0.09290       -2.71160        1.91550
H          0.13440       -0.74680        3.19380
