17
gdb 17394	4.82435	1.69592	1.58196	0.8365	67.81	-0.2301	0.0699	0.3	857.6928	0.14321	-363.79328	-363.786489	-363.785545	-363.824399	26.358
C          0.01140        1.37030       -0.30770
C          1.45210        1.55430        0.20530
C          1.28260        0.13320        0.76680
C          2.23000       -1.07900        0.48190
C          2.29660       -1.32900        1.99200
N          2.82920       -0.07740        2.58420
C          1.38090       -0.18930        2.26270
O         -0.03580        0.01590        0.19760
H         -0.74720        2.00620        0.16490
H         -0.12620        1.40240       -1.39450
H          2.21100        1.64770       -0.57310
H          1.60880        2.33220        0.95380
H          1.67200       -1.84780       -0.05760
H          3.18060       -0.87260       -0.01680
H          2.39970       -2.27510        2.50830
H          2.91830       -0.23110        3.58880
H          0.61570       -0.05100        3.01690
