14
gdb 21256	5.51625	1.38477	1.11476	2.3729	59.87	-0.2079	0.0473	0.2552	1002.8103	0.108029	-415.869018	-415.861433	-415.860489	-415.900927	27.443
C         -0.58480        0.71820        0.25250
O          0.64440        0.81230       -0.45690
C          0.92860       -0.23200       -1.24960
C          0.27680       -1.41630       -1.54250
C          1.15680       -2.04160       -2.45850
O          0.94030       -3.24350       -3.03250
N          2.24260       -1.33680       -2.71830
N          2.08030       -0.21020       -1.95330
H         -1.43160        0.64840       -0.44020
H         -0.58740       -0.15450        0.91590
H         -0.66780        1.63020        0.84420
H         -0.66450       -1.77880       -1.17100
H          1.69730       -3.41780       -3.60630
H          2.77680        0.51300       -1.95910
