15
gdb 15847	2.58128	2.13153	1.30634	3.8206	68.26	-0.2442	0.0254	0.2696	926.2977	0.117416	-362.653675	-362.645586	-362.644641	-362.686243	29.579
C         -0.06510        1.56790       -0.11850
C          0.02520        0.05710        0.00300
N          1.05910       -0.58430       -0.82070
C          1.78510       -1.13060        0.20190
O          2.77570       -1.80240        0.24620
C          0.77490       -0.54460        1.25520
C          1.30170        0.35850        2.24970
C          1.74900        1.11320        3.07180
H          0.90720        2.03390        0.05940
H         -0.41230        1.85090       -1.11770
H         -0.77620        1.96630        0.61140
H         -0.96120       -0.40060       -0.13560
H          1.16780       -0.66390       -1.82130
H          0.20570       -1.35390        1.72300
H          2.15070        1.77090        3.80240
