16
gdb 6653	6.92652	0.86496	0.81439	5.9417	66.79	-0.2609	0.0138	0.2747	1361.6944	0.129399	-379.976204	-379.966889	-379.965945	-380.012014	31.01
C         -0.12230        1.40740        0.16260
C         -0.28640       -0.09840        0.27590
O          0.29910       -0.76500        1.11100
N         -1.12500       -0.67310       -0.63940
C         -1.31030       -2.10990       -0.69020
C         -2.18920       -2.62240        0.47610
C         -2.42850       -4.05890        0.38360
N         -2.60990       -5.19560        0.28120
H         -0.15210        1.84030        1.16430
H          0.86340        1.62410       -0.26070
H         -0.88200        1.88450       -0.46210
H         -1.60480       -0.09570       -1.30830
H         -1.76800       -2.36760       -1.64790
H         -0.33420       -2.59890       -0.63290
H         -1.68060       -2.39430        1.41710
H         -3.15190       -2.09990        0.47970
