14
gdb 1429	7.79216	1.57252	1.32188	0.6445	59.34	-0.2264	-0.0086	0.2178	871.8481	0.113649	-357.934562	-357.926897	-357.925953	-357.966316	26.863
C         -0.43920        1.80890       -0.54510
N         -0.08530        0.44330       -0.87530
C         -0.56400       -0.47890       -0.13400
N         -1.39870       -0.37610        0.94100
N         -0.22130       -1.80100       -0.50350
C         -0.47110       -2.96750        0.15190
O         -1.08060       -3.09140        1.19850
H          0.00200        2.48460       -1.28190
H         -1.52800        1.97820       -0.54820
H         -0.06240        2.11970        0.44430
H         -1.47280        0.52390        1.38210
H         -1.53280       -1.20790        1.50280
H          0.32820       -1.82720       -1.35040
H         -0.04580       -3.83240       -0.38830
