18
gdb 12339	2.99522	2.0876	1.33068	2.5983	72.89	-0.2357	-0.0109	0.2248	940.2492	0.154202	-347.846738	-347.838984	-347.83804	-347.878838	29.253
C         -0.02780        1.55640        0.00110
C          0.09990        0.03530        0.01460
C          0.79720       -0.52450       -1.24790
C          1.07340       -2.00090       -1.15120
C          1.12530       -2.66050        0.00440
C          0.95440       -1.99680        1.34640
C          0.81450       -0.48000        1.25930
O          1.23640        0.24970        2.12610
H          0.95890        2.02880       -0.00110
H         -0.57230        1.88990       -0.88790
H         -0.55630        1.91480        0.88750
H         -0.90160       -0.42180        0.04180
H          0.17180       -0.31310       -2.12390
H          1.73600        0.02310       -1.42070
H          1.23920       -2.53470       -2.08360
H          1.32250       -3.72960        0.01390
H          0.05740       -2.38690        1.85310
H          1.79070       -2.22040        2.01830
