17
gdb 10832	4.80337	1.49795	1.19897	5.384	64.82	-0.2497	0.0564	0.306	992.9949	0.144031	-401.055753	-401.048042	-401.047098	-401.087968	28.317
C         -0.06010        1.54990        0.02530
C          0.01900        0.02320       -0.00790
C          0.74430       -0.48780       -1.25300
N          1.05740       -1.89850       -1.09450
C          1.02610       -2.64170        0.05610
O          1.21000       -3.83320        0.08020
O          0.75570       -1.96890        1.20740
C          0.75370       -0.53870        1.20380
H          0.93890        1.99850        0.06330
H         -0.56560        1.93710       -0.86480
H         -0.61700        1.89580        0.90140
H         -0.99510       -0.39570        0.00060
H          0.12080       -0.35080       -2.14430
H          1.66250        0.10000       -1.40830
H          1.27210       -2.44930       -1.90940
H          1.78990       -0.17010        1.22720
H          0.27110       -0.24740        2.14030
