14
gdb 20854	6.87664	1.27847	1.09256	5.667	59.31	-0.2547	0.0016	0.2563	1036.055	0.107499	-415.892853	-415.885456	-415.884512	-415.925136	26.369
C         -0.06210        1.54190        0.10910
C          0.01560        0.01900       -0.02370
C          0.72120       -0.43540       -1.25950
N          1.22670        0.35320       -2.14970
O          1.79070       -0.49850       -3.13580
C          1.59970       -1.81100       -2.79540
O          1.96190       -2.76120       -3.42690
N          0.91260       -1.75310       -1.59030
H          0.93630        1.98420        0.13690
H         -0.59550        1.98210       -0.73640
H         -0.58720        1.80850        1.02950
H          0.52990       -0.41600        0.84350
H         -0.99180       -0.41790       -0.02460
H          0.62290       -2.56810       -1.07840
