19
gdb 16339	3.09026	1.82644	1.43902	2.6208	71.08	-0.2318	0.0702	0.302	950.6943	0.165805	-365.024247	-365.016157	-365.015212	-365.056631	30.878
C         -0.26190        1.50360       -0.10130
C          0.09330        0.01870        0.07290
C          0.87150       -0.52500       -1.08720
N          0.24000       -0.80760       -2.40630
C          0.99580       -1.87860       -1.69580
C          2.46040       -1.65760       -2.06680
C          2.33170       -0.20040       -1.47260
O          2.51980        0.89260       -2.32760
H          0.63850        2.10160       -0.26960
H         -0.91950        1.65120       -0.96390
H         -0.77270        1.89210        0.78460
H          0.68450       -0.11250        0.98850
H         -0.82090       -0.57450        0.21110
H         -0.75290       -0.96520       -2.23570
H          0.50150       -2.80300       -1.42180
H          3.15790       -2.28080       -1.50220
H          2.69310       -1.71040       -3.13330
H          2.97940       -0.04880       -0.60520
H          1.83140        0.80380       -3.00180
