16
gdb 17244	4.66889	1.71798	1.64225	1.0445	63.6	-0.2169	0.078	0.295	836.5918	0.129959	-383.649808	-383.64294	-383.641996	-383.680959	26.268
C          0.15570        1.29200        0.17390
O         -0.18240       -0.03590       -0.20200
C          0.53820       -0.50330       -1.26830
C          0.39110       -0.16780       -2.75730
C          1.29840       -1.41060       -2.96110
O          2.59150       -1.00000       -2.42610
C          1.97580       -1.06620       -1.14040
C          0.84930       -1.96000       -1.55490
H          1.22010        1.37570        0.43080
H         -0.06850        2.00720       -0.62900
H         -0.44970        1.53730        1.04870
H         -0.63010       -0.35150       -3.10100
H          0.77460        0.78020       -3.14650
H          1.36170       -1.94810       -3.90410
H          2.58130       -1.02550       -0.24460
H          0.45020       -2.89530       -1.18900
