13
gdb 20319	6.23685	1.4105	1.15847	2.8056	63.47	-0.2603	0.0109	0.2712	955.095	0.097105	-357.636682	-357.62973	-357.628786	-357.668656	24.953
C         -0.39240       -0.69030       -1.05500
C         -0.11220        0.14400       -0.23690
C          0.25620        1.16490        0.73800
C          1.52960        1.88370        0.39010
N          2.09440        2.85010        1.09260
C          3.20170        3.14810        0.35710
N          3.35800        2.43460       -0.74600
N          2.27100        1.62760       -0.70460
H         -0.66150       -1.43400       -1.76440
H         -0.54850        1.90410        0.83390
H          0.36790        0.71540        1.73240
H          3.91050        3.91070        0.64310
H          2.09900        0.94770       -1.42820
