22
gdb 6559	3.59077	1.28607	1.24674	1.0589	78.76	-0.2347	0.0815	0.3162	1140.0245	0.197238	-350.192582	-350.182967	-350.182023	-350.22676	36.401
C          0.01390        1.54060        0.35080
C          0.04050        0.04780       -0.01490
C          0.80180       -0.75760        1.04800
C         -1.38850       -0.48240       -0.16440
O          0.60420       -0.14460       -1.32870
C          1.92730        0.23450       -1.54030
C          3.03820       -0.78090       -1.41480
C          2.56380       -0.31670       -2.77680
H          1.01800        1.93940        0.52260
H         -0.45730        2.11870       -0.44960
H         -0.55930        1.69450        1.27020
H          0.31260       -0.65270        2.02160
H          0.81900       -1.81990        0.78690
H          1.83340       -0.41150        1.15040
H         -1.92350        0.08170       -0.93350
H         -1.37160       -1.53410       -0.46360
H         -1.93670       -0.39550        0.77830
H          2.16250        1.26500       -1.28010
H          4.00840       -0.45360       -1.05560
H          2.75550       -1.78270       -1.11360
H          1.96410       -1.01260       -3.35230
H          3.20240        0.33130       -3.36640
