16
gdb 8564	3.95049	1.9945	1.69094	2.3717	63.39	-0.2424	-0.0196	0.2228	793.6853	0.132069	-383.753053	-383.746722	-383.745778	-383.783672	25.045
O         -0.00290        0.01350       -0.34120
C         -0.01420        1.17770       -0.02570
C         -1.32210        1.94740        0.21150
C         -1.04110        3.25640        0.94820
C         -0.01150        3.06620        2.08160
C          0.98260        3.28320        0.92160
C          1.27870        1.98180        0.17730
O         -0.04870        3.99220        0.17660
H         -1.77010        2.16720       -0.76510
H         -2.01780        1.29480        0.74950
H         -1.93990        3.84770        1.13900
H         -0.01330        3.89920        2.78530
H          0.00810        2.11350        2.61710
H          1.87020        3.89810        1.08900
H          2.00530        1.34800        0.69670
H          1.69490        2.21300       -0.81060
