18
gdb 12690	2.9946	1.94898	1.33751	2.7125	67.11	-0.2507	-0.0278	0.2229	946.1105	0.153838	-384.977338	-384.969313	-384.968368	-385.009786	30.163
C         -0.08860        1.57190        0.04380
C          0.04810        0.04280       -0.00000
C          0.81710       -0.50710       -1.23290
C          2.23410       -0.86040       -0.71800
C          1.95870       -1.40930        0.68720
O          3.05280       -1.46520        1.55580
C          0.87350       -0.45880        1.18580
O          0.79440       -0.10410        2.33790
H          0.88360        2.05900       -0.08620
H         -0.75100        1.92140       -0.75320
H         -0.49660        1.88920        1.00670
H         -0.95470       -0.39500        0.07240
H          0.32750       -1.40850       -1.61600
H          0.84380        0.21450       -2.05310
H          2.76050       -1.56820       -1.36130
H          2.85630        0.03750       -0.62670
H          1.48570       -2.40570        0.58230
H          2.73760       -1.09240        2.39370
