13
gdb 1258	9.24692	1.27872	1.13133	1.7184	55.46	-0.2585	0.0074	0.2659	996.0035	0.100338	-377.816587	-377.80863	-377.807686	-377.849065	26.581
C          0.04130        1.38550       -0.06980
N          0.00450       -0.05190       -0.25760
C         -1.07700       -0.63180       -0.00110
O         -1.14700       -1.99080       -0.16930
C         -2.34910       -2.59820        0.13150
N         -2.23540       -3.92390       -0.12160
O         -3.33110       -2.02890        0.53640
H          0.82940        1.63630        0.64880
H          0.30890        1.86710       -1.01670
H         -0.90700        1.81690        0.28630
H         -2.01090       -0.18890        0.35210
H         -1.34430       -4.32190       -0.35970
H         -2.99840       -4.52070        0.14270
