15
gdb 19869	3.92919	2.35809	2.09119	2.7644	59.22	-0.2247	0.0695	0.2942	696.9715	0.121486	-399.737461	-399.731675	-399.730731	-399.767242	23.019
C          0.20800        1.27370        0.32710
O          1.31800        1.87990       -0.32390
C          2.03250        0.87030       -0.99010
C          3.09120        0.04150       -0.22910
N          2.45520       -0.41600        1.02460
C          2.18930       -1.15710       -0.22680
C          1.09820       -0.37110       -0.98760
O         -0.06840        0.03760       -0.32020
H          0.43800        1.10270        1.38350
H         -0.66340        1.92920        0.21070
H          2.37280        1.23720       -1.96060
H          4.16850        0.09930       -0.32130
H          3.15570       -0.94210        1.54510
H          2.43190       -2.20850       -0.31670
H          0.83810       -0.80220       -1.95650
