15
gdb 3623	5.27861	3.63731	3.41629	0.0882	62.63	-0.2375	0.1026	0.34	511.9247	0.127818	-271.304881	-271.300339	-271.299395	-271.332712	19.807
C         -0.04690        1.58720        0.12910
C          1.49100        1.51440       -0.04000
C          2.03000        0.58830        1.07640
C          0.94350       -0.49110        1.08250
C          2.14960       -0.62380        0.17930
C          1.33900        0.18600       -0.87780
C          0.01460        0.04780       -0.03150
H         -0.45520        2.00370        1.05550
H         -0.52390        2.06250       -0.73490
H          2.09500        2.36490       -0.35380
H          2.60340        0.84470        1.95740
H          0.68840       -1.05790        1.96820
H          2.91030       -1.38980        0.11230
H          1.39190        0.12650       -1.96190
H         -0.84190       -0.55210       -0.33680
