15
gdb 2423	4.46072	3.31114	2.50814	1.7406	60.59	-0.2274	0.0884	0.3158	596.9693	0.124878	-308.430606	-308.424815	-308.42387	-308.459767	23.03
C          0.02920        1.45360       -0.08840
C          0.00430       -0.03820       -0.00720
O          0.56130       -0.81970       -1.11600
C          0.09860       -1.81600       -0.16080
C          0.53800       -1.01450        1.10020
C         -0.85530       -1.14610        1.75180
C         -1.18380       -1.03210        0.24770
H          1.05830        1.81570       -0.17430
H         -0.53300        1.79950       -0.96120
H         -0.41900        1.89160        0.80910
H          0.22720       -2.87140       -0.39890
H          1.52980       -1.00310        1.55300
H         -1.08150       -2.10380        2.22850
H         -1.17980       -0.31950        2.39000
H         -2.14520       -1.04080       -0.26670
