16
gdb 2766	4.68936	2.03885	1.53341	4.2351	62.93	-0.2389	0.0262	0.2652	810.2092	0.136931	-325.793131	-325.78578	-325.784836	-325.825029	25.765
C         -0.34210        1.46240        0.09630
C          0.05030       -0.00240       -0.03100
C          0.91720       -0.40780       -1.26380
C          2.00690       -0.91600       -0.27740
N          1.16960       -0.44030        0.82520
C          1.25120       -0.73920        2.14040
O          2.18550       -1.31620        2.66010
H          0.53080        2.11080       -0.02830
H         -1.08120        1.72240       -0.66900
H         -0.78550        1.67120        1.07510
H         -0.83540       -0.63900        0.09310
H          0.47940       -1.17090       -1.90750
H          1.22620        0.44170       -1.87550
H          2.16080       -1.99980       -0.26080
H          2.98320       -0.42610       -0.33800
H          0.36300       -0.38360        2.70390
