18
gdb 20001	3.80814	1.25191	1.03071	3.3121	74.28	-0.2423	-0.0144	0.2279	1151.3541	0.153143	-347.787455	-347.779442	-347.778498	-347.820533	29.618
O         -0.02390       -0.01100       -0.43320
C          0.01580        1.13380       -0.05240
C          1.24840        1.94380        0.03480
C          1.15510        3.45050       -0.19200
C          1.45490        2.94750        1.17870
C          0.48580        3.10260        2.30930
C          0.75060        2.42900        3.63360
C          0.87670        3.92690        3.51290
H         -0.91550        1.66540        0.25210
H          2.13190        1.43140       -0.33020
H          1.93830        3.91130       -0.78270
H          0.16250        3.85390       -0.37130
H          2.49490        3.01240        1.49010
H         -0.55640        3.17410        2.01370
H         -0.09190        2.02190        4.18130
H          1.66300        1.84970        3.72990
H          1.87370        4.35510        3.52880
H          0.12000        4.55020        3.97590
