14
gdb 10006	2.64605	1.26929	0.89825	2.7063	73.71	-0.2489	-0.0363	0.2126	1251.871	0.102741	-345.346259	-345.336836	-345.335892	-345.382586	31.115
C         -0.08270        1.48560        0.05440
C          0.01330        0.03420        0.01530
C          0.11460       -1.16460       -0.01700
C          0.15480       -2.62730       -0.04290
C         -1.30270       -3.15040        0.06890
O         -1.69770       -3.81730        0.98110
C          0.74620       -3.16500       -1.26890
C          1.17650       -3.64310       -2.28330
H          0.79150        1.92510        0.54660
H         -0.14380        1.90500       -0.95550
H         -0.97260        1.80840        0.60540
H          0.68740       -3.01470        0.83430
H         -1.94610       -2.83710       -0.77840
H          1.57870       -4.05550       -3.17570
