18
gdb 11032	4.09821	1.74119	1.44832	1.2179	72.44	-0.2272	0.0185	0.2457	911.8939	0.15384	-347.797928	-347.790372	-347.789428	-347.829124	29.983
C         -0.14320        1.57840        0.04220
C          0.02950        0.05240        0.00680
C          0.81050       -0.45430       -1.19540
C          1.80700       -1.27090       -0.85130
C          1.90590       -1.41810        0.63670
O          2.17070       -2.67030        1.19270
C          2.26860       -0.15180        1.38030
C          0.81060       -0.53490        1.18590
H          0.82510        2.08690        0.08050
H         -0.67340        1.93320       -0.84800
H         -0.72060        1.88500        0.92010
H         -0.97710       -0.39150       -0.00960
H          0.57280       -0.14150       -2.20680
H          2.49400       -1.76490       -1.53000
H          3.12630       -2.78120        1.23620
H          2.64500       -0.27650        2.39110
H          2.69830        0.67650        0.82660
H          0.27230       -0.84550        2.07330
