11
gdb 9026	4.80578	0.92498	0.80003	3.9041	69.42	-0.2948	-0.07	0.2248	1293.4249	0.072245	-356.420061	-356.412079	-356.411134	-356.453094	27.063
N         -0.04160        1.48720        0.07210
C         -0.02270        0.02490       -0.02370
C         -1.39090       -0.50090        0.15070
N         -2.46020       -0.91470        0.28200
C          0.56760       -0.50700       -1.26350
C          1.09140       -0.87850       -2.28590
C          1.68190       -1.30020       -3.44330
N          2.18750       -1.65540       -4.42640
H          0.91070        1.83680        0.01860
H         -0.55090        1.87900       -0.71500
H          0.57100       -0.35030        0.82130
