18
gdb 9327	7.61987	0.72618	0.67393	4.0192	69.91	-0.2474	-0.0916	0.1557	1636.0763	0.150108	-384.962446	-384.952798	-384.951854	-384.998209	32.424
C          0.09230        1.55080        0.00900
C          0.01130        0.02200        0.00190
C         -1.43020       -0.49620        0.01300
C         -1.51920       -2.02060        0.00600
C         -2.93480       -2.55540        0.01690
O         -3.92660       -1.87140        0.03030
C         -3.06010       -4.10160        0.00970
O         -4.11860       -4.66430        0.01660
H          1.13090        1.89500        0.00080
H         -0.40790        1.97680       -0.86760
H         -0.39100        1.96770        0.89920
H          0.53280       -0.36930       -0.88210
H          0.54950       -0.37830        0.87160
H         -1.96010       -0.11290        0.89300
H         -1.97680       -0.10400       -0.85270
H         -1.00700       -2.44750       -0.87090
H         -0.99040       -2.45640        0.86860
H         -2.09460       -4.65750       -0.00240
