21
gdb 2723	12.26849	0.79261	0.76578	0.9111	72.96	-0.2477	0.0913	0.3391	1556.5634	0.192997	-312.124533	-312.115001	-312.114056	-312.159241	32.611
C         -0.01560        1.55480        0.00280
C          0.01280        0.02410       -0.01820
C          0.71700       -0.54210       -1.25520
C          0.74540       -2.06410       -1.27630
O          1.40980       -2.49210       -2.44500
C          1.48860       -3.89640       -2.56150
C          2.22030       -4.23770       -3.84870
H          0.99880        1.96880       -0.00530
H         -0.54010        1.95220       -0.87310
H         -0.52310        1.93310        0.89560
H          0.51270       -0.34460        0.88740
H         -1.01470       -0.36110        0.02550
H          0.21840       -0.18900       -2.16640
H          1.74870       -0.17230       -1.30280
H          1.26050       -2.45070       -0.37870
H         -0.28280       -2.46740       -1.25000
H          2.01790       -4.32260       -1.69150
H          0.47620       -4.33660       -2.56420
H          2.29730       -5.32250       -3.96860
H          1.68780       -3.82920       -4.71230
H          3.22970       -3.81640       -3.83940
