11
gdb 21879	3.40737	2.52394	1.44993	2.1525	57.53	-0.256	-0.0781	0.1779	762.769	0.073279	-430.700425	-430.694255	-430.693311	-430.731027	22.77
O         -0.06530        1.28960        0.17650
C          0.01330       -0.02390        0.04170
N          1.15120       -0.61120       -0.08840
C          1.10190       -1.98380       -0.22080
N          0.07350       -2.75430       -0.23180
O         -1.16540       -2.10470       -0.08920
C         -1.27540       -0.74360        0.05220
N         -2.38760       -0.15630        0.18070
H          0.84370        1.62900        0.15240
H          2.05090       -2.49800       -0.33170
H         -3.15590       -0.83060        0.16270
