18
gdb 18037	3.75134	2.14903	1.55822	1.0807	73.2	-0.2391	0.0204	0.2595	847.1742	0.156209	-347.797233	-347.790619	-347.789675	-347.827842	26.437
C         -0.02270        1.55080        0.08690
C          1.51510        1.59310       -0.14030
C          1.43630        0.10280       -0.61720
C          2.42120       -0.91610       -0.14580
C          2.08520       -1.79840        0.79330
C          0.74120       -1.74900        1.47310
O          0.11700       -0.48140        1.37320
C          0.03530        0.00900        0.04700
H         -0.41380        1.97710        1.01250
H         -0.57990        1.95610       -0.76190
H          1.89860        2.32400       -0.85530
H          2.06760        1.68630        0.79670
H          1.34210        0.06930       -1.70890
H          3.40860       -0.93370       -0.60120
H          2.77120       -2.57760        1.11420
H          0.08060       -2.54220        1.07630
H          0.85160       -1.94150        2.54640
H         -0.74730       -0.52630       -0.51060
