12
gdb 20776	3.4772	1.89435	1.23571	4.2712	57.83	-0.2818	-0.0939	0.1879	893.5461	0.082582	-414.627187	-414.620071	-414.619126	-414.659095	24.323
C         -0.02840        1.48960        0.05000
C         -0.01190       -0.00330        0.03870
N         -0.03970       -0.68870       -1.07250
O         -0.01260       -2.01220       -0.69580
N          0.03190       -2.15090        0.64330
C          0.03360       -0.93170        1.13020
C          0.07690       -0.64490        2.58350
O          0.11310       -1.48220        3.44700
H          0.86660        1.88890        0.53710
H         -0.06530        1.86640       -0.97320
H         -0.89930        1.86890        0.59340
H          0.07310        0.43990        2.82220
