17
gdb 16303	3.54505	1.69811	1.40273	3.8306	69.53	-0.2439	-0.0403	0.2035	931.7016	0.141422	-363.827027	-363.819278	-363.818334	-363.859045	28.652
C         -0.06900        1.62150       -0.21320
C          0.04760        0.11710       -0.00310
C          1.12660       -0.69940       -0.76600
N          1.65340       -1.33290        0.49830
C          2.15680       -0.23380        1.31100
C          0.68160       -0.41320        1.28550
C         -0.04900       -0.92680        2.46810
O          0.47670       -1.45510        3.41740
H          0.89190        2.12630       -0.07310
H         -0.41840        1.84630       -1.22650
H         -0.78360        2.06210        0.49060
H         -0.93290       -0.35030       -0.14400
H          0.73140       -1.46390       -1.43620
H          1.88720       -0.11420       -1.29500
H          2.64390       -0.56750        2.22160
H          2.60130        0.63270        0.82500
H         -1.15390       -0.79090        2.42050
