9
gdb 21981	5.76455	1.78025	1.36019	2.594	48.57	-0.3245	-0.1276	0.1969	780.0555	0.048818	-466.545965	-466.540112	-466.539168	-466.577027	19.71
O         -0.14320        0.01660        0.00400
N         -0.02950        1.23010        0.00700
O          0.99450        1.88490        0.00250
C         -1.28260        1.99360        0.01740
N         -1.40500        3.27760        0.02230
C         -2.77280        3.39560        0.03140
N         -3.42870        2.26210        0.03190
O         -2.41460        1.30390        0.02240
H         -3.28980        4.34370        0.03770
