11
gdb 21511	5.39734	1.75935	1.32685	3.8447	52.63	-0.298	-0.0585	0.2395	818.0904	0.073674	-426.91621	-426.90969	-426.908746	-426.947254	23.02
N         -0.08500        1.33140        0.00870
C          0.10180       -0.00070        0.00140
O          1.14220       -0.60800       -0.00950
N         -1.14810       -0.72270        0.01040
C         -1.34320       -2.05910        0.00810
N         -2.63140       -2.29910        0.01780
N         -3.23690       -1.07230        0.02760
N         -2.36760       -0.12690        0.02330
H          0.72750        1.92320        0.00300
H         -1.01320        1.72290        0.01750
H         -0.54010       -2.77580       -0.00130
