17
gdb 7798	3.20037	1.94211	1.2794	3.0878	66.5	-0.254	0.0189	0.273	948.565	0.142963	-401.010441	-401.002852	-401.001908	-401.042451	28.311
C          0.01350        1.50700        0.07440
C         -0.02500       -0.00250       -0.08890
C          0.81850       -0.51540       -1.24540
O          0.80490       -1.92810       -1.26010
C          1.41940       -2.44220       -0.09490
C          0.87570       -1.85840        1.19540
N          0.94000       -2.52490        2.26800
O          0.42980       -0.57160        1.16120
H          1.04160        1.85590        0.21100
H         -0.40900        1.99700       -0.80800
H         -0.56940        1.80740        0.94850
H         -1.05800       -0.34330       -0.24370
H          0.39840       -0.17870       -2.19730
H          1.85050       -0.13310       -1.16200
H          1.26830       -3.52140       -0.08380
H          2.50550       -2.24650       -0.11960
H          0.59180       -1.96720        3.05110
