19
gdb 15877	2.56413	1.86568	1.20248	2.7544	72.9	-0.2244	-0.0283	0.1961	1041.5366	0.163503	-365.048217	-365.039319	-365.038375	-365.082101	31.685
C         -0.21000        1.48390        0.09540
C         -0.04320       -0.02980        0.15690
C          0.96130       -0.63000       -0.86240
N          1.97410       -0.70360        0.20570
C          2.87900       -1.83120        0.23800
C          0.94620       -0.58360        1.24740
C          1.30080        0.32000        2.40750
O          0.67000        0.38180        3.43210
H          0.75930        1.98910        0.03520
H         -0.78960        1.76600       -0.78980
H         -0.73840        1.86280        0.97600
H         -1.01810       -0.51920        0.17850
H          0.64290       -1.61910       -1.23000
H          1.24380       -0.00880       -1.72050
H          3.54160       -1.79940       -0.63320
H          3.50460       -1.78270        1.13570
H          2.35680       -2.80660        0.23660
H          0.58330       -1.54480        1.64740
H          2.19650        0.95700        2.22440
