12
gdb 20687	4.04474	2.00639	1.35729	2.43	61.66	-0.271	-0.1127	0.1582	840.6383	0.082142	-410.794838	-410.787728	-410.786784	-410.826934	25.081
C          0.00820        1.49100       -0.03170
C         -0.10120        0.00670        0.03710
N         -1.17850       -0.62010       -0.22690
C         -1.16720       -2.01100       -0.14270
N         -2.23010       -2.68310       -0.23950
O          0.06570       -2.62860        0.01860
N          1.21720       -1.85750        0.41300
N          1.12100       -0.63600        0.43610
H          0.80540        1.77450       -0.72740
H         -0.93950        1.92270       -0.35040
H          0.29230        1.88790        0.94910
H         -2.03530       -3.67980       -0.13930
