13
gdb 4274	4.08238	1.88513	1.29225	8.359	63.84	-0.2232	-0.0146	0.2085	865.4719	0.098344	-394.837997	-394.831301	-394.830357	-394.86876	25.444
N          0.08930        1.40790        0.15760
C         -0.01710        0.02830        0.04000
C         -1.16470       -0.69230        0.00850
C         -1.14490       -2.15180       -0.02410
O         -2.15030       -2.83330       -0.04350
N          0.14400       -2.76910       -0.04870
C          1.18320       -2.02620       -0.02170
N          1.18360       -0.65180        0.01270
H          0.77570        1.83350       -0.45330
H         -0.80130        1.87900        0.07780
H         -2.12760       -0.19690       -0.00080
H          2.17890       -2.46930       -0.02920
H          2.04520       -0.15310        0.17040
