16
gdb 14055	4.83678	1.58659	1.49047	1.3935	60.01	-0.2531	0.062	0.3151	871.1309	0.131336	-420.84623	-420.83927	-420.838325	-420.878122	25.241
C          0.05150        1.53180       -0.13810
O          1.31410        1.56590        0.55910
C          1.44780        0.13270        0.48540
C          0.00270       -0.00950       -0.03710
C         -1.03650       -0.65730        0.89030
O         -2.00210       -1.17530       -0.01070
C         -1.24490       -1.61380       -1.10610
O         -0.17590       -0.69360       -1.26350
H         -0.72830        2.09930        0.38330
H          0.13660        1.88210       -1.17420
H          2.20130       -0.18400       -0.24670
H          1.67200       -0.31430        1.46230
H         -0.57290       -1.46490        1.48010
H         -1.52690        0.04360        1.56780
H         -0.83940       -2.62610       -0.92910
H         -1.87310       -1.60910       -2.00150
