12
gdb 10576	2.75539	1.94358	1.32444	4.3323	60.71	-0.3282	-0.051	0.2772	898.5648	0.081981	-377.513968	-377.506224	-377.50528	-377.546134	26.893
C         -0.05200        1.54070       -0.04360
C         -0.03600        0.04310        0.06610
O          1.19930       -0.63290       -0.14800
C          0.66240       -0.68110        1.17430
C          1.38400        0.06670        2.18690
N          1.94490        0.67400        2.99340
C          0.15870       -1.97080        1.60950
N         -0.26270       -2.99060        1.95000
H          0.81260        1.98790        0.45030
H         -0.03970        1.82670       -1.09980
H         -0.96630        1.93950        0.40590
H         -0.89630       -0.48520       -0.34550
