19
gdb 1193	4.51654	1.65703	1.62312	2.265	63.37	-0.2538	0.0618	0.3155	880.3669	0.169345	-348.059242	-348.050232	-348.049288	-348.091844	33.189
C          0.01340        1.55040        0.14660
C         -0.04770        0.03070       -0.03550
C          0.66960       -0.48860       -1.29130
C          0.07630        0.08170       -2.59090
O          2.03950       -0.10630       -1.17060
C          0.60810       -2.02420       -1.31410
O          1.45680       -2.46180       -2.37470
H          1.04970        1.89600        0.12190
H         -0.54010        2.07870       -0.63540
H         -0.42180        1.83830        1.10850
H          0.41760       -0.45060        0.83300
H         -1.09250       -0.30350       -0.06310
H          0.24800        1.15860       -2.64520
H          0.55140       -0.38650       -3.45700
H         -1.00180       -0.10430       -2.65240
H          2.51950       -0.66360       -1.79620
H          0.96410       -2.40960       -0.34880
H         -0.42580       -2.36720       -1.46860
H          1.63530       -3.39860       -2.25980
