19
gdb 11111	6.643	0.96953	0.91146	4.4027	76.56	-0.3021	0.0305	0.3326	1289.2959	0.165902	-327.941636	-327.933173	-327.932229	-327.974933	30.878
C         -0.62030        1.31730       -0.12760
C         -0.12140       -0.12290        0.01830
C          1.00780       -0.27080        1.03950
C          0.56180       -0.17870        2.53060
C          0.62490       -1.73720        2.61970
C          1.45480       -1.73960        1.29590
C          1.22350       -2.32940        3.80300
N          1.71880       -2.78740        4.74260
H          0.18580        1.98090       -0.45930
H         -1.43000        1.38380       -0.86040
H         -1.00050        1.70910        0.82190
H         -0.95920       -0.77750        0.29670
H          0.23620       -0.48770       -0.95340
H          1.82400        0.40760        0.77380
H          1.31280        0.29070        3.16880
H         -0.41050        0.27250        2.74100
H         -0.36200       -2.18160        2.46700
H          1.16830       -2.48680        0.55210
H          2.52470       -1.82830        1.49340
