20
gdb 18366	3.22748	2.10392	1.55147	1.3647	73.95	-0.2463	0.0788	0.3251	898.257	0.178954	-349.007216	-348.999788	-348.998844	-349.039025	28.874
C         -0.00530        1.57480       -0.10560
C          0.15800        0.06670       -0.03660
O          1.04940       -0.35880       -1.06910
C          1.36570       -1.71610       -0.78340
C          1.51080       -1.80900        0.74220
C          2.83190       -1.24690        1.33590
C          2.09760        0.05560        1.75640
C          0.74850       -0.53410        1.24820
H          0.94710        2.08710        0.05310
H         -0.38720        1.86750       -1.08750
H         -0.71510        1.91570        0.65450
H         -0.82840       -0.40550       -0.20140
H          0.55420       -2.37770       -1.13030
H          2.27740       -1.97190       -1.33190
H          1.19510       -2.78040        1.12730
H          3.21520       -1.83030        2.17650
H          3.64220       -1.11640        0.61280
H          2.12170        0.27560        2.82610
H          2.42980        0.94610        1.21850
H         -0.00880       -0.68230        2.02030
