12
gdb 19391	3.24861	2.35714	1.61795	2.4441	55.21	-0.2485	-0.0471	0.2015	756.676	0.082179	-418.407361	-418.400957	-418.400013	-418.438033	23.577
O         -0.01360        0.00250       -0.07910
C         -0.03020        1.18850        0.02920
C         -1.09960        2.28560       -0.08130
O         -0.88130        3.10990        1.08400
C         -0.03730        3.32430       -0.04560
C          1.06760        2.28360        0.11340
C          2.38200        2.33220        0.74650
O          2.23140        2.20530       -0.67720
H         -2.08370        2.28870       -0.53290
H         -0.01870        4.29540       -0.52270
H          2.77240        3.28770        1.09190
H          2.76220        1.44670        1.25150
