14
gdb 13758	3.22512	1.92591	1.56024	3.8539	59.37	-0.2485	-0.0398	0.2087	834.7364	0.106228	-415.871967	-415.864029	-415.863085	-415.904706	28.002
N          0.01340        1.14670       -0.08280
C         -0.00440       -0.20400        0.15320
O          0.95820       -0.93060        0.05370
N         -1.26650       -0.66490        0.59370
C         -2.49820       -0.56710       -0.15250
C         -1.83520       -1.90090        0.08470
C         -1.20370       -2.55780       -1.11610
O         -0.95110       -1.97290       -2.13780
H          0.92930        1.56000       -0.15170
H         -0.71760        1.72340        0.29980
H         -3.38420       -0.30050        0.41740
H         -2.44420       -0.20220       -1.17510
H         -2.21360       -2.57800        0.84670
H         -1.00610       -3.64380       -1.00270
