17
gdb 19949	3.6121	1.78756	1.39769	1.553	68.91	-0.2161	-0.0255	0.1906	917.3361	0.141848	-363.832485	-363.824944	-363.824	-363.864695	28.009
O          0.97760        0.61580       -0.97620
C          0.40070        1.50050       -0.40840
C         -1.00270        1.64080        0.20550
C         -0.42580        2.78060        1.09540
C          0.83850        2.86960        0.18410
N          2.11750        3.10380        0.81040
C          2.86670        1.96730        1.34710
C          3.32280        2.66000        0.10970
H         -1.73160        1.99080       -0.53240
H         -1.40210        0.75010        0.69530
H         -1.01960        3.69010        1.18360
H         -0.16060        2.42520        2.09350
H          0.69000        3.63800       -0.58690
H          3.36280        2.15220        2.29550
H          2.46300        0.96580        1.22470
H          3.19930        2.11540       -0.82200
H          4.15980        3.35230        0.14180
