22
gdb 8955	3.66072	1.13251	0.91983	2.2885	75.28	-0.2491	0.0769	0.326	1310.7419	0.197195	-387.329787	-387.319149	-387.318205	-387.365425	37.591
C          0.05680        1.35180       -0.06310
O         -0.01510       -0.04820        0.05270
C         -1.33410       -0.58820        0.02110
C         -1.83170       -0.69150       -1.42460
C         -1.26160       -1.93690        0.76180
C         -0.78900       -1.74580        2.20920
C         -2.59610       -2.68640        0.72050
O         -2.43120       -3.91950        1.40810
H          1.10910        1.62930        0.04110
H         -0.30130        1.72030       -1.03610
H         -0.52150        1.85620        0.72720
H         -2.00580        0.08370        0.58490
H         -1.24750       -1.43280       -1.97930
H         -2.88730       -0.97440       -1.46920
H         -1.73370        0.26960       -1.93760
H         -0.52350       -2.55360        0.23090
H         -1.50450       -1.13210        2.77170
H         -0.70750       -2.70980        2.71380
H          0.17940       -1.24380        2.23060
H         -3.37940       -2.07050        1.19640
H         -2.90440       -2.86720       -0.31870
H         -3.26950       -4.38930        1.38350
