14
gdb 18861	4.52823	2.25501	1.88496	1.1795	59.59	-0.2416	-0.0124	0.2292	702.1567	0.10911	-378.662638	-378.65684	-378.655896	-378.692218	23.292
O          0.02510        1.31600        0.12780
C          0.01070       -0.08660        0.00180
C         -1.45640       -0.50940       -0.11960
C         -1.35190       -0.59350       -1.59730
C          0.20550       -0.59360       -1.47880
N          0.60920       -2.00510       -1.37210
C         -0.42930       -2.59250       -0.93510
N         -1.64160       -1.81950       -0.83470
H          0.94030        1.60850        0.06470
H          0.64380       -0.57910        0.75140
H         -2.26420       -0.19150        0.52730
H         -2.01110       -0.27440       -2.39550
H          0.83310        0.00310       -2.13710
H         -0.46710       -3.63970       -0.65450
