13
gdb 380	7.05534	2.24882	1.81798	4.8739	50.26	-0.2534	0.0266	0.28	658.1766	0.109366	-282.667163	-282.660209	-282.659265	-282.697592	24.235
N          0.07960        1.49180       -0.01570
C          0.01180        0.03090       -0.00380
C          0.78260       -0.48960        1.23890
N          0.31080        0.04220        2.51820
C          0.76100       -1.95740        1.25810
N          0.71460       -3.11160        1.24080
H          0.96030        1.80450       -0.41270
H         -0.65400        1.87770       -0.59890
H         -1.03730       -0.26860        0.09190
H          0.40890       -0.45320       -0.90930
H          1.83360       -0.18630        1.12550
H          0.17370        1.04140        2.37480
H         -0.60620       -0.34580        2.72600
