15
gdb 2488	4.99234	3.05434	2.62386	1.6347	59.74	-0.2267	0.0851	0.3119	589.1686	0.12522	-308.455402	-308.449654	-308.448709	-308.484455	23.104
C         -0.00490        1.54770        0.07540
C         -0.11140        0.06050       -0.04340
C          0.36280       -0.75570       -1.28120
C         -0.53200       -1.86630       -0.73710
C         -0.43700       -1.71210        0.79080
O          0.49490       -0.67200        1.07200
C         -1.39490       -0.86720        0.03100
H          1.04880        1.84750        0.08460
H         -0.49500        2.03770       -0.77120
H         -0.46850        1.89830        1.00190
H         -0.03340       -0.34200       -2.21240
H          1.44140       -0.92700       -1.36130
H         -0.84290       -2.78660       -1.21450
H         -0.57260       -2.51000        1.50850
H         -2.46010       -0.69050        0.08660
