14
gdb 8587	4.94629	1.91974	1.76433	3.5361	63.09	-0.2476	-0.0258	0.2217	752.3976	0.106244	-382.423298	-382.417282	-382.416338	-382.453215	24.124
O         -0.03360       -0.05840       -0.18310
C          0.00380        1.11000        0.02990
C         -1.12030        2.20180        0.29260
C          0.05650        3.07050        0.73090
C          1.05780        4.24260        0.89810
C          1.76010        2.86990        1.24620
O          0.56620        2.50160        2.01720
C          1.11650        2.22140       -0.00350
H         -1.56100        2.50930       -0.66150
H         -1.90010        1.97820        1.02220
H          1.37040        4.77030       -0.00580
H          0.89960        4.90360        1.75090
H          2.73710        2.71270        1.70720
H          1.46490        2.49590       -1.00290
