15
gdb 6875	2.90332	1.6951	1.47851	3.9152	62.52	-0.2735	0.0214	0.2949	904.12	0.116293	-399.793395	-399.784757	-399.783813	-399.826089	31.296
C         -0.05730        1.58040       -0.05020
C          0.00870        0.07450        0.00120
O         -1.16080       -0.59910       -0.37070
C          1.29780       -0.64790       -0.26060
O          2.42160        0.11760       -0.52540
C          0.69590       -0.64340        1.15920
C          1.36820        0.08630        2.19020
N          1.94030        0.66250        3.01510
H          0.88670        2.03030        0.25840
H         -0.26610        1.90840       -1.07520
H         -0.85930        1.94310        0.59840
H         -1.34040       -0.39090       -1.29520
H          1.22360       -1.60160       -0.78240
H          3.16370       -0.22130       -0.01160
H          0.21380       -1.56140        1.47670
