19
gdb 2726	13.10376	0.79168	0.76441	2.2451	65.7	-0.2495	0.0784	0.3279	1488.8173	0.169512	-348.043668	-348.034323	-348.033379	-348.078309	31.35
C          0.02370        1.51140       -0.06760
C          0.02340       -0.00750       -0.03010
O          0.67590       -0.48750       -1.18640
C          0.73210       -1.89470       -1.25230
C          1.45330       -2.29090       -2.53310
C          1.56700       -3.80030       -2.69950
O          2.25150       -4.05120       -3.91730
H          1.04790        1.89400       -0.09390
H         -0.49870        1.87290       -0.95800
H         -0.47640        1.91580        0.81750
H          0.53690       -0.37230        0.87650
H         -1.01000       -0.39340        0.01230
H          1.25980       -2.29880       -0.36980
H         -0.28740       -2.32010       -1.23440
H          0.91990       -1.87350       -3.39360
H          2.45690       -1.85260       -2.53460
H          2.10940       -4.23230       -1.84200
H          0.56160       -4.25340       -2.70770
H          2.32570       -5.00320       -4.02920
