15
gdb 19279	3.36482	1.75686	1.2992	2.6311	61.63	-0.2505	-0.0314	0.2191	917.0134	0.118514	-399.756113	-399.748759	-399.747815	-399.788077	27.03
O          0.96250       -0.98710        0.59160
C          0.17870       -0.01240       -0.07240
C         -1.29710       -0.36540       -0.02790
N         -1.98510       -0.31930        1.32570
C         -2.07050        1.09110        1.69870
C         -3.07980        0.56580        0.73460
C         -2.43700        0.49770       -0.62300
O         -2.76940        0.79940       -1.73090
H          0.61250       -1.08140        1.48450
H          0.36270        0.99390        0.33270
H          0.50600       -0.00240       -1.11690
H         -1.41960       -1.38290       -0.41810
H         -2.41420        1.25150        2.71590
H         -1.31740        1.79770        1.36060
H         -4.13100        0.46270        0.97680
