17
gdb 5929	4.03492	1.30211	1.2654	2.5276	65.83	-0.2588	-0.0425	0.2163	1014.3774	0.138888	-401.036348	-401.027	-401.026056	-401.070383	32.757
C         -0.01870        1.64290       -0.04930
C         -0.03560        0.11000       -0.02120
C          0.82020       -0.44290        1.14490
N         -1.40460       -0.42110        0.05360
C         -2.26580       -0.22460        1.08810
O         -2.01800        0.36980        2.11620
C          0.58100       -0.46930       -1.29580
O          1.39180        0.09100       -1.98040
H          1.00300        2.00010       -0.19270
H         -0.62870        2.01950       -0.87510
H         -0.41620        2.03100        0.88960
H          0.38070       -0.12820        2.09180
H          0.85430       -1.53690        1.12240
H          1.84050       -0.05810        1.06920
H         -1.77940       -0.88430       -0.76110
H         -3.25280       -0.68730        0.88470
H          0.24450       -1.50940       -1.52940
