19
gdb 3096	3.5457	1.95994	1.6049	1.293	67.68	-0.2528	0.0758	0.3286	869.0372	0.170521	-310.902165	-310.893498	-310.892554	-310.935068	31.082
C         -0.24220        1.01010       -1.76070
C         -0.00700       -0.19310       -0.87150
C          1.36200       -0.60430       -0.36800
C          2.63880        0.12950       -0.72660
C          0.32500       -0.06760        0.60150
C          0.45010        1.27050        1.28060
O         -0.86690        1.74750        1.54420
H          0.45190        1.82960       -1.56000
H         -0.13050        0.74100       -2.81690
H         -1.25440        1.40090       -1.61570
H         -0.66930       -1.02240       -1.10860
H          1.51220       -1.67940       -0.29870
H          2.49830        1.20740       -0.83370
H          3.40890       -0.02620        0.03750
H          3.04000       -0.24050       -1.67690
H         -0.14130       -0.80700        1.24770
H          1.01880        1.15410        2.21760
H          1.00540        1.98500        0.65710
H         -0.79130        2.56290        2.04910
