13
gdb 20397	4.96354	2.10726	1.50715	4.5481	59.1	-0.2207	0.0051	0.2258	772.8169	0.098081	-398.580733	-398.574737	-398.573792	-398.611803	21.901
C          0.02850        1.37210       -0.13550
C          1.50390        1.87560        0.09720
C          2.13420        0.61440        0.61360
C          1.18100       -0.34650        0.64270
O         -0.05330       -0.04990        0.24530
O          1.59770       -1.51450        1.07850
N          2.99500       -1.34260        1.38480
C          3.26250       -0.08190        1.09700
H         -0.69850        1.90350        0.48140
H         -0.27580        1.43370       -1.18190
H          1.94320        2.24010       -0.83720
H          1.52430        2.70570        0.81110
H          4.27670        0.25800        1.25880
