18
gdb 12080	3.81598	1.6042	1.48094	2.0738	67.28	-0.2389	0.0616	0.3004	921.1594	0.153504	-384.901002	-384.893188	-384.892244	-384.932712	30.542
O         -0.09790        1.44400       -0.02740
C          0.04090        0.02680        0.08390
C         -1.36660       -0.54440       -0.02650
O         -2.17520        0.03690        0.97810
C         -2.06670       -0.52740       -1.43740
C         -2.26940       -2.04490       -1.32580
C         -0.94230       -2.73050       -1.19490
C         -1.53800       -2.06380        0.01790
H          0.73090        1.85700        0.22900
H          0.69400       -0.36840       -0.70540
H          0.46340       -0.25440        1.05980
H         -1.95940        0.97890        0.96560
H         -2.99550        0.04070       -1.37210
H         -1.48140       -0.17790       -2.29450
H         -3.16450       -2.58260       -1.61240
H         -0.97340       -3.81540       -1.17190
H         -0.06060       -2.32940       -1.68910
H         -1.77300       -2.60470        0.92640
