15
gdb 12997	2.81964	2.7078	1.6438	2.3747	62.44	-0.2467	0.0169	0.2635	783.4389	0.11985	-399.802033	-399.795191	-399.794247	-399.832777	26.561
O          0.12880        1.35650       -0.10910
C          0.00510       -0.01530       -0.03150
C         -0.47070       -0.83080       -1.21050
C         -1.29540       -0.78210        0.05580
C         -1.03740       -1.90820        1.03700
O          0.38590       -1.88730        1.31830
C          0.93060       -0.71590        0.89850
N          2.04220       -0.22540        1.24590
H          0.99810        1.55150        0.27310
H         -0.83630       -0.23770       -2.04110
H          0.04030       -1.74990       -1.48300
H         -2.25510       -0.28180        0.05880
H         -1.57590       -1.76140        1.97990
H         -1.27290       -2.90180        0.64380
H          2.51590       -0.79900        1.94290
