16
gdb 8528	4.61093	1.89491	1.62762	2.7294	63.49	-0.2281	0.0644	0.2925	807.2912	0.129013	-383.640783	-383.633924	-383.63298	-383.671282	27.437
C         -0.15210        1.58740       -0.03940
C         -0.04040        0.07130       -0.01930
O         -1.29120       -0.54740       -0.26690
C          1.17950       -0.59210       -0.70850
C          2.09070       -0.34460        0.53390
O          2.53180       -1.72950        0.64190
C          1.12370       -1.81160        0.26660
C          0.68360       -0.60630        1.15710
H          0.80150        2.06840        0.19780
H         -0.46070        1.94190       -1.03120
H         -0.90050        1.92380        0.68490
H         -1.66180       -0.16820       -1.07080
H          1.48570       -0.60110       -1.75510
H          2.80870        0.44960        0.73250
H          0.66730       -2.79010        0.14000
H          0.42320       -0.63000        2.21490
