19
gdb 19154	3.9744	1.49427	1.26694	2.1195	70.58	-0.2431	0.0855	0.3286	1025.469	0.16524	-365.016615	-365.008283	-365.007338	-365.049508	30.94
C         -0.05400        1.52120        0.13030
C         -0.06260        0.00650       -0.08410
C          0.68740       -0.48920       -1.31230
C          0.87920        0.34740       -2.50760
O          1.95100        0.14000       -1.57630
C          0.71220       -1.98910       -1.44920
C          1.77380       -2.67130       -2.22210
N          1.75920       -2.75770       -0.74850
H          0.96700        1.90980        0.08880
H         -0.65000        2.04400       -0.62420
H         -0.47570        1.76910        1.10830
H          0.37980       -0.49110        0.78870
H         -1.09380       -0.36420       -0.14630
H          1.00830       -0.13410       -3.47520
H          0.49130        1.36290       -2.54020
H         -0.27100       -2.45310       -1.39290
H          1.55230       -3.60040       -2.73920
H          2.53460       -2.04900       -2.68300
H          2.45120       -2.10040       -0.39110
