18
gdb 16519	3.59912	2.32356	1.81503	1.7217	70.09	-0.2193	0.0911	0.3105	793.5317	0.155327	-347.777342	-347.770741	-347.769797	-347.807598	26.913
C         -0.02030        1.46900        0.05380
C          0.00230       -0.03670       -0.03260
C          1.03480       -0.73660       -0.92540
C          0.38560       -2.10120       -1.28960
C         -0.71520       -2.23680       -0.24430
O         -0.07650       -2.20180        1.07960
C         -0.43970       -0.82590        1.18930
C         -1.30120       -0.82360       -0.03470
H          0.93650        1.85830        0.42010
H         -0.20990        1.92120       -0.92680
H         -0.80220        1.81970        0.73610
H          1.24230       -0.13490       -1.81600
H          1.98370       -0.87530       -0.39810
H         -0.05380       -2.08060       -2.29400
H          1.09070       -2.93580       -1.24400
H         -1.38800       -3.09100       -0.33780
H         -0.56770       -0.40850        2.18230
H         -2.29730       -0.45460       -0.23830
