19
gdb 10173	2.62896	1.55865	1.15037	1.5176	71.3	-0.2444	0.0161	0.2605	1119.866	0.162672	-402.178196	-402.168016	-402.167072	-402.214452	33.845
C         -0.79710       -1.89690       -3.54770
O         -1.72110       -2.81240       -2.98850
C         -2.40360       -2.30290       -1.85580
C         -1.51950       -2.14880       -0.63130
O         -0.89630       -3.24450       -0.11810
C         -1.26620       -4.55530       -0.54810
N         -1.35300       -0.99800       -0.12720
C         -0.52010       -0.87500        1.06060
H         -0.35600       -2.38650       -4.41880
H         -1.29780       -0.97170       -3.86890
H          0.00050       -1.62860       -2.84230
H         -2.83490       -1.31520       -2.05560
H         -3.21910       -3.00750       -1.65920
H         -0.55400       -5.23380       -0.07520
H         -2.27610       -4.81340       -0.20740
H         -1.20780       -4.64960       -1.63420
H          0.54440       -0.92850        0.79690
H         -0.70170        0.09860        1.52300
H         -0.70820       -1.66490        1.79810
