20
gdb 16912	3.61215	1.72427	1.34266	1.4675	73.71	-0.2554	0.0746	0.33	964.8642	0.179613	-349.00749	-349.000072	-348.999128	-349.038804	29.851
O         -0.12440        1.45220        0.06470
C          0.02240        0.03780        0.02010
C          0.79930       -0.50630        1.22200
C          1.03060       -2.01810        1.07910
C         -0.24130       -2.78600        0.75720
C         -1.49200       -2.62180        1.57940
C         -1.43880       -2.05680        0.17690
C         -1.39240       -0.54350       -0.03390
H          0.75580        1.84000        0.10050
H          0.56170       -0.25830       -0.89700
H          1.76750        0.00510        1.30090
H          0.24680       -0.26940        2.13980
H          1.74900       -2.18280        0.26470
H          1.49920       -2.41840        1.98670
H         -0.06450       -3.78730        0.37390
H         -2.10360       -3.49830        1.76500
H         -1.48000       -1.91230        2.40150
H         -2.00920       -2.60140       -0.56860
H         -1.98530       -0.02570        0.73000
H         -1.84160       -0.28440       -0.99720
