16
gdb 21942	6.71017	1.0368	0.96478	2.4235	66.64	-0.2342	0.0241	0.2583	1178.5003	0.132473	-379.937415	-379.929613	-379.928669	-379.970684	27.678
O         -0.09030        1.45470        0.08900
C          0.02930        0.04580       -0.00370
C         -1.39030       -0.53100       -0.03830
C         -1.40750       -2.02390       -0.11760
C         -1.37310       -2.89750       -1.18960
C         -1.36490       -4.18500       -0.61340
N         -1.39230       -4.13510        0.71530
N         -1.41330       -2.81570        0.98830
H          0.79290        1.83490        0.08180
H          0.56820       -0.26000       -0.91320
H          0.57640       -0.37230        0.85630
H         -1.92480       -0.18470        0.85420
H         -1.91400       -0.10800       -0.90060
H         -1.36250       -2.63370       -2.23510
H         -1.34580       -5.14370       -1.11090
H         -1.45270       -2.51850        1.94910
