16
gdb 15075	3.11418	1.61346	1.1953	2.5781	61.4	-0.2503	-0.035	0.2152	1012.6796	0.12728	-420.839049	-420.830436	-420.829492	-420.872717	29.522
C          0.67440        1.16250       -0.70270
O          0.47050       -0.09990       -0.09790
C         -0.85290       -0.30460        0.34710
C         -1.78540       -0.61240       -0.83170
O         -2.97670       -0.44940       -0.80660
C         -0.83630       -1.48190        1.30470
C         -2.06400       -2.16540        1.72020
O         -1.18090       -2.75960        0.76240
H          1.72470        1.21020       -0.99730
H          0.05040        1.30320       -1.59770
H          0.45930        1.98250       -0.00100
H         -1.23610        0.58510        0.87330
H         -1.25210       -1.01490       -1.71970
H          0.03010       -1.48390        1.96550
H         -2.09410       -2.65560        2.69140
H         -3.02050       -1.83150        1.32350
