19
gdb 10171	2.48153	1.43804	0.93937	1.3572	71.41	-0.2424	0.0271	0.2696	1264.1303	0.162813	-402.198001	-402.187879	-402.186934	-402.234221	34.331
C         -0.21600        1.49690       -0.02610
C         -0.07420       -0.01360       -0.01870
O         -1.39550       -0.57350       -0.05250
C         -1.50090       -1.92520       -0.04280
C         -2.97480       -2.30800       -0.10890
O         -3.82960       -1.35580        0.47920
N         -0.46900       -2.65390       -0.03210
C         -0.55880       -4.09900       -0.04500
H          0.77390        1.96220       -0.00530
H         -0.73630        1.83740       -0.92610
H         -0.77590        1.84290        0.84770
H          0.48850       -0.37980       -0.88360
H          0.44130       -0.37540        0.87670
H         -3.22450       -2.47820       -1.17120
H         -3.13490       -3.25700        0.40960
H         -3.43890       -0.49290        0.29970
H          0.19830       -4.50860        0.63180
H         -1.53310       -4.51440        0.24710
H         -0.32380       -4.47690       -1.04810
