17
gdb 14520	3.85281	1.77256	1.49529	2.1467	64.02	-0.2352	0.0519	0.287	872.9147	0.143119	-400.910957	-400.90375	-400.902805	-400.942142	28.561
O          0.75430       -0.27960        1.30830
C          0.11980        0.04230        0.08620
C         -1.26670       -0.59000        0.01310
O         -1.98880       -0.16040        1.16880
C         -2.08960       -0.71330       -1.31340
C         -1.13460       -1.84770       -1.76160
C         -1.49270       -2.10340       -0.27750
N         -2.93460       -1.80970       -0.67930
H          0.06980       -0.19840        1.98430
H          0.00820        1.13700       -0.03360
H          0.77860       -0.29810       -0.71440
H         -2.15390        0.78590        1.08380
H         -2.53220        0.08180       -1.91770
H         -1.59070       -2.55710       -2.45070
H         -0.10650       -1.60560       -2.02390
H         -1.22750       -2.95310        0.35210
H         -3.41010       -1.41420        0.13560
