22
gdb 12003	3.00198	1.94352	1.68649	0.1574	80.5	-0.2611	0.0825	0.3436	926.8605	0.201559	-313.083388	-313.075451	-313.074507	-313.114742	32.457
C         -0.00190        1.54770       -0.00550
C          0.00480        0.01320        0.00460
C         -1.44270       -0.51280       -0.00070
C          0.79510       -0.57110       -1.20330
C          1.35400       -1.93410       -0.73400
C          1.54440       -1.77420        0.76800
C          2.24560       -0.52520        1.24450
C          0.73700       -0.57570        1.21460
H          1.01550        1.94810        0.05170
H         -0.46500        1.93480       -0.92040
H         -0.56640        1.94760        0.84440
H         -1.99310       -0.13650       -0.87030
H         -1.47110       -1.60680       -0.03060
H         -1.98080       -0.19180        0.89840
H          0.16800       -0.66050       -2.09550
H          1.61640        0.10270       -1.46850
H          0.63050       -2.73540       -0.92540
H          2.27520       -2.20580       -1.26160
H          1.61360       -2.66640        1.38100
H          2.71910       -0.56460        2.21960
H          2.77720        0.09300        0.52760
H          0.21150       -0.57750        2.16490
