15
gdb 15315	3.12974	1.40641	1.05341	3.444	65.32	-0.2539	-0.0298	0.224	1083.521	0.117012	-399.783905	-399.775764	-399.77482	-399.817649	28.125
N         -0.22040        1.19190       -0.02610
C         -0.27670       -0.04720       -0.24160
O         -1.00780       -0.83460        0.58800
C         -1.01100       -2.20440        0.29160
C         -2.13720       -2.98360        0.84360
C         -2.05430       -2.77090       -0.67120
C         -3.05160       -1.87240       -1.30300
O         -3.48040       -2.02760       -2.42000
H          0.36330        1.64330       -0.72720
H          0.21160       -0.60280       -1.05240
H         -0.02260       -2.65640        0.25480
H         -1.95710       -3.98060        1.22610
H         -2.90160       -2.41760        1.36570
H         -1.74850       -3.60650       -1.29100
H         -3.39190       -1.03080       -0.66190
