14
gdb 19785	3.12532	2.92771	1.86655	4.8078	60.09	-0.2479	-0.0087	0.2392	709.0591	0.10933	-378.68899	-378.683138	-378.682194	-378.718808	23.076
O          0.00530        0.01340        0.23710
C         -0.01340        1.19440        0.06270
N         -1.21380        1.98530       -0.07240
C         -1.56680        2.71770        1.16800
C         -0.80210        3.38870        0.08730
C          0.71510        3.40950        0.06530
C          1.52880        2.76020        1.12320
N          1.16040        2.01790       -0.10670
H         -2.62830        2.91890        1.27850
H         -1.06710        2.43890        2.09000
H         -1.30300        4.10900       -0.55150
H          1.17720        4.14310       -0.58740
H          2.58720        2.99060        1.20300
H          1.06390        2.46820        2.05920
