20
gdb 5839	3.11298	1.38632	1.22719	3.7822	71.34	-0.2371	-0.0075	0.2295	1100.2709	0.173102	-386.155071	-386.144968	-386.144024	-386.189783	36.534
C          0.07870        1.51170        0.07430
C         -0.03270       -0.01870       -0.01450
C          0.66580       -0.66760        1.19570
C         -1.52650       -0.42530       -0.03260
C          0.56580       -0.48430       -1.36020
O          0.61060        0.24290       -2.32100
C          1.06910       -1.92680       -1.45000
O          1.35280       -2.23630       -2.78980
H          1.12530        1.82890        0.12010
H         -0.37090        1.98410       -0.80060
H         -0.42730        1.87520        0.97460
H          0.21910       -0.29270        2.12250
H          0.56250       -1.75680        1.20580
H          1.73320       -0.42440        1.22370
H         -2.04370        0.03170       -0.88120
H         -1.65610       -1.51060       -0.09820
H         -2.01460       -0.08710        0.88760
H          1.95930       -2.00620       -0.80290
H          0.30950       -2.59670       -1.01340
H          1.72080       -3.12430       -2.81550
