16
gdb 19123	2.80147	2.01286	1.40985	2.3975	71.14	-0.2405	0.0232	0.2637	909.3929	0.130432	-342.689208	-342.68146	-342.680516	-342.721288	29.191
C          0.03480       -1.20150        0.07120
C          0.00000        0.00180        0.06540
C         -0.05320        1.44170        0.03300
C          0.48470        2.17130        1.22750
N          1.22600        2.19480       -0.03500
C         -1.17310        2.05900       -0.76310
C         -1.72410        1.39490       -1.96760
N         -2.52430        1.48580       -0.73120
H          0.07320       -2.26290        0.08660
H          0.02510        3.11550        1.50700
H          0.86100        1.57660        2.05440
H          2.00530        1.54250        0.00160
H         -1.14570        3.14530       -0.73260
H         -2.08730        1.99730       -2.79500
H         -1.31190        0.42920       -2.24550
H         -2.49730        0.58700       -0.25220
