14
gdb 11317	4.85706	1.52606	1.16976	1.6441	70.5	-0.2589	-0.0773	0.1816	969.1284	0.107885	-378.775626	-378.768234	-378.767289	-378.807989	26.375
C          0.03860        1.42260        0.00780
N          0.04450       -0.03170        0.00300
C         -1.07530       -0.63400        0.00890
N         -2.37200       -0.11740        0.01950
C         -3.33180       -1.13480        0.02340
O         -4.52880       -0.97480        0.03180
C         -2.54280       -2.40510        0.01310
C         -1.23920       -2.10400        0.00520
H          1.06730        1.78890       -0.00060
H         -0.47330        1.83530       -0.87410
H         -0.45650        1.82920        0.90200
H         -2.62050        0.85680        0.02470
H         -3.01860       -3.37450        0.01290
H         -0.38450       -2.76460       -0.00310
