16
gdb 10935	4.25131	1.54532	1.3697	1.7281	71.06	-0.2387	0.0246	0.2633	943.8038	0.128441	-346.528377	-346.520683	-346.519739	-346.560109	29.372
C          0.03740        1.50630       -0.01240
C          0.05740        0.01720        0.08070
C         -0.89700       -0.86590        0.82450
C          0.59430       -0.98140        1.08110
C          1.24170       -1.66420       -0.12860
O          0.60850       -0.70830       -1.03570
C          2.69240       -1.59450       -0.17900
C          3.89330       -1.55250       -0.20080
H          1.03860        1.89800       -0.21530
H         -0.62690        1.82970       -0.82170
H         -0.33020        1.94300        0.92070
H         -1.45210       -0.39120        1.62810
H         -1.43020       -1.65360        0.29840
H          1.05960       -0.84900        2.04790
H          0.90250       -2.68650       -0.33970
H          4.95430       -1.51420       -0.23050
