17
gdb 12435	3.43584	1.98162	1.35573	2.8085	70.87	-0.2547	-0.0043	0.2504	905.7252	0.144129	-363.869748	-363.862481	-363.861537	-363.901594	27.458
N         -0.04800        1.35240       -0.08290
C         -0.00000        0.09190        0.03850
C         -1.28060       -0.71320        0.05910
C         -1.44140       -1.73930        1.20240
C         -0.53920       -2.93820        1.05740
C          0.78530       -2.84350        0.95850
C          1.51590       -1.52850        1.04060
O          1.20150       -0.57090        0.01120
H          0.90400        1.72500       -0.12430
H         -2.09270        0.01520        0.09290
H         -1.35100       -1.24790       -0.89650
H         -1.25910       -1.24000        2.16470
H         -2.48620       -2.06170        1.22260
H         -1.01060       -3.91590        0.99910
H          1.39010       -3.73620        0.82830
H          1.34750       -1.05480        2.01910
H          2.59150       -1.68280        0.93510
