18
gdb 17475	3.47658	2.46424	1.94981	0.3969	75.22	-0.2179	0.021	0.2389	770.7243	0.155369	-310.644941	-310.638531	-310.637587	-310.674817	27.07
C         -0.03860        1.54910       -0.01260
C         -0.04080        0.03620        0.05490
C          0.31410       -0.76170       -1.27070
C         -0.83690       -1.70870       -0.96570
C         -0.90340       -2.08620        0.54010
C          0.30370       -1.85340        1.38240
C          0.76930       -0.62110        1.15710
C         -1.40170       -0.75330        0.05630
H          0.97610        1.93450       -0.16510
H         -0.65900        1.91140       -0.83930
H         -0.42490        1.98640        0.91490
H          0.07780       -0.15530       -2.15030
H          1.33050       -1.16070       -1.35900
H         -1.36200       -2.32340       -1.68730
H         -1.61570       -2.86800        0.77820
H          0.74390       -2.60390        2.02740
H          1.68060       -0.19000        1.55590
H         -2.40080       -0.35460        0.19130
