20
gdb 17795	5.31936	1.186	1.04154	1.9168	74.68	-0.2414	0.0814	0.3228	1161.0256	0.178305	-348.969708	-348.961802	-348.960858	-349.003389	28.844
C         -0.05170        1.57210       -0.01190
C          1.49950        1.53090        0.03040
C          1.40730        0.07020        0.56350
C         -0.05490        0.02030        0.02900
C          2.40660       -0.95750        0.07770
C          3.81670       -0.92230        0.71560
O          3.63780       -2.22520        1.30620
C          2.33090       -2.36660        0.71450
H         -0.46970        2.00140        0.90310
H         -0.52370        2.05860       -0.86850
H          1.92920        1.55650       -0.97690
H          2.01790        2.26960        0.64660
H          1.39840        0.07840        1.66080
H         -0.80870       -0.47730        0.64400
H         -0.09180       -0.40750       -0.97870
H          2.42320       -0.97390       -1.01650
H          4.65950       -0.90300        0.01280
H          3.97240       -0.14400        1.47470
H          1.54790       -2.50070        1.47290
H          2.28820       -3.20790        0.01110
