15
gdb 15305	4.52813	1.08866	0.94765	3.0324	69.29	-0.2434	-0.0234	0.2199	1177.1811	0.116623	-362.605057	-362.59678	-362.595835	-362.638743	29.23
O         -0.52500        0.25000        0.04410
C          0.00560        1.33010        0.08750
C          1.41550        1.61870       -0.38680
C          1.44770        2.79410       -1.34100
N          1.24170        4.12010       -0.74940
C          2.56280        3.79790       -1.33900
C          3.68550        3.70100       -0.44800
C          4.64310        3.60730        0.27290
H         -0.52320        2.22020        0.49480
H          2.02200        1.86890        0.49280
H          1.82900        0.71840       -0.85000
H          1.00010        2.60540       -2.31560
H          0.72490        4.72490       -1.38230
H          2.79310        4.24180       -2.30520
H          5.48510        3.53310        0.91600
