8
gdb 144	18.70863	3.50788	3.35304	3.6533	36.45	-0.3077	-0.0072	0.3004	376.0875	0.056139	-245.983375	-245.978827	-245.977883	-246.010694	14.866
N          0.01010       -1.13750       -0.03330
C          0.01300        0.01710        0.01220
C         -0.01570        1.46360        0.06110
C          0.52360        2.18510        1.23030
O          1.24320        2.13090        0.00500
H         -0.81110        1.91960       -0.52480
H          0.09440        3.15190        1.48590
H          0.95010        1.61480        2.05230
