15
gdb 18321	3.56478	2.27491	1.61257	4.1426	61.8	-0.2568	0.004	0.2609	789.0956	0.121157	-399.789203	-399.782756	-399.781812	-399.820257	23.979
N         -0.04000        1.17120        0.30300
C         -0.01410       -0.06420        0.05340
O          1.11260       -0.84210        0.02500
C          0.86100       -2.09380       -0.63790
C         -0.65570       -2.30010       -0.62990
C         -1.28410       -2.79100        0.69020
O         -1.78030       -1.47110        1.00190
C         -1.22850       -0.92610       -0.21890
H          0.90290        1.52540        0.47740
H          1.25360       -2.03320       -1.66000
H          1.40860       -2.87310       -0.10030
H         -1.02880       -2.76710       -1.54010
H         -2.10120       -3.51330        0.58090
H         -0.57740       -3.15810        1.44520
H         -1.98010       -0.41710       -0.82490
