18
gdb 19837	3.27639	2.45446	1.76182	1.9706	70.37	-0.219	0.067	0.286	792.3049	0.15773	-343.935001	-343.928711	-343.927767	-343.965036	26.084
C          0.04900        1.47410       -0.16550
C          1.30500        0.68950        0.00390
C          2.10800        0.77700        1.27260
N          1.84170        1.87820        2.21760
C          1.44340        0.50740        2.58160
C         -0.04840        0.21460        2.57540
C         -0.48010       -0.51950        1.28590
N         -0.01150        0.02600        0.01200
H         -0.22370        2.13070        0.65550
H         -0.23780        1.83050       -1.15140
H          1.89510        0.45920       -0.88060
H          3.14080        0.45550        1.16570
H          2.70030        2.13560        2.69680
H          2.03490        0.00090        3.34010
H         -0.31700       -0.41180        3.43230
H         -0.59840        1.15370        2.68940
H         -0.11660       -1.55430        1.32870
H         -1.57350       -0.56960        1.24080
