16
gdb 18687	3.01712	2.58937	1.55362	4.6413	64.88	-0.2409	0.0449	0.2858	809.8862	0.133809	-379.941996	-379.935365	-379.934421	-379.972704	25.74
O         -0.05080       -0.03320        0.28170
C         -0.04280        1.16470        0.09230
N         -1.18120        1.90440       -0.12700
C         -1.25340        3.35190        0.03610
C         -0.16770        3.80410        1.02630
C          1.16220        3.29030        0.50920
C          1.92430        2.20150        1.19540
N          1.14780        1.91950       -0.00420
H         -2.02910        1.36290       -0.07740
H         -1.11550        3.86490       -0.92610
H         -2.25120        3.61360        0.40080
H         -0.15630        4.89380        1.11650
H         -0.39190        3.38800        2.01430
H          1.71880        3.98020       -0.12250
H          3.00250        2.13600        1.08160
H          1.53920        1.82730        2.14100
