17
gdb 5243	6.4654	1.03784	0.95806	2.1097	71.22	-0.1969	0.0461	0.2431	1203.2317	0.143552	-363.894426	-363.886404	-363.885459	-363.927615	29.21
O         -0.09180        1.45510        0.11050
C          0.02300        0.04170        0.07010
C         -1.38620       -0.53440       -0.10340
C         -1.41360       -2.02870       -0.13200
C         -1.46450       -2.91800       -1.18460
C         -1.42600       -4.23630       -0.65010
C         -1.35210       -4.12020        0.71730
N         -1.34160       -2.78080        1.01990
H          0.79260        1.82830        0.16530
H          0.65600       -0.29290       -0.76570
H          0.47390       -0.35080        0.99640
H         -2.01680       -0.14300        0.70540
H         -1.80360       -0.14660       -1.03740
H         -1.52660       -2.64430       -2.22740
H         -1.45640       -5.16120       -1.20520
H         -1.31410       -4.86600        1.49500
H         -1.31300       -2.39980        1.94970
