16
gdb 20660	3.26263	2.20023	1.33573	4.8766	72.99	-0.2245	-0.0403	0.1843	901.8213	0.131365	-342.818008	-342.810594	-342.809649	-342.849554	27.331
C          0.01720        1.52870       -0.02310
C          0.01040        0.02600        0.01720
C         -0.01200       -0.73100       -1.15850
N         -0.01960       -2.06080       -1.21500
N         -0.00510       -2.75240       -0.07860
C          0.01650       -2.09100        1.07630
C          0.02560       -0.69880        1.20820
C          0.05030       -0.04400        2.56110
H          0.90680        1.93730        0.47000
H          0.00300        1.89550       -1.05220
H         -0.85250        1.94610        0.49740
H         -0.02490       -0.23290       -2.12540
H          0.02740       -2.72100        1.96300
H          0.93530        0.59160        2.68100
H         -0.82400        0.60040        2.70880
H          0.05920       -0.78950        3.35980
