11
gdb 21882	5.84521	1.50375	1.19605	4.1837	56.03	-0.2633	-0.0621	0.2012	894.6799	0.073654	-430.75513	-430.748826	-430.747882	-430.785832	22.595
O          0.08540        1.29800       -0.08950
C          0.07060       -0.03180       -0.05560
N          0.03790       -0.75230       -1.15320
N          0.03440       -2.02460       -0.63880
C          0.00340       -3.18790       -1.42450
O         -0.02320       -3.20770       -2.61830
C          0.06520       -1.96910        0.72530
N          0.08880       -0.72790        1.13350
H          0.10930        1.60640        0.82480
H          0.00730       -4.08300       -0.77560
H          0.06870       -2.85170        1.34790
