11
gdb 20625	3.57019	1.99555	1.29033	2.658	60.63	-0.2946	-0.0898	0.2048	850.7046	0.071722	-393.572742	-393.565883	-393.564939	-393.604221	23.721
C         -0.00340        1.51440        0.11610
C          0.02250        0.03340       -0.00870
C         -0.00610       -0.78250       -1.10400
O          0.03750       -2.06250       -0.70070
N          0.09560       -2.02030        0.71150
N          0.08560       -0.81640        1.07620
C         -0.06990       -0.49170       -2.48440
N         -0.12220       -0.21630       -3.60740
H          0.89380        1.87310        0.62950
H         -0.05390        1.98370       -0.86830
H         -0.86940        1.83610        0.70240
