15
gdb 19807	4.00734	2.10653	1.82135	3.151	64.12	-0.2357	-0.039	0.1967	751.9057	0.119404	-362.599404	-362.593213	-362.592269	-362.62962	24.583
O          0.01070       -0.01360       -0.01000
C         -0.01990        1.18040        0.02270
C         -1.16420        2.22510        0.07150
C         -0.08330        3.33900        0.12080
C          0.52520        3.70090        1.48660
C          0.69030        2.55260        2.39700
N          1.68910        2.72480        1.31940
C          1.05930        2.29500       -0.00280
H         -1.73640        2.22410       -0.86260
H         -1.86410        2.13790        0.90740
H         -0.17830        4.16500       -0.57990
H          0.70480        4.71950        1.81590
H          1.11820        2.76420        3.37250
H          0.01100        1.70540        2.39330
H          1.80250        2.27120       -0.79990
