18
gdb 8114	3.10074	1.97903	1.54106	1.7643	67.84	-0.2293	0.0759	0.3052	901.8545	0.152498	-384.903606	-384.895543	-384.894599	-384.935359	31.016
C         -0.10590        1.56430       -0.00880
C          0.18440        0.07630       -0.00430
O          1.41140       -0.30860       -0.71410
C          1.79100       -1.17780        0.37560
C          2.31400       -2.53150        0.02440
C          2.11720       -0.30770        1.53730
O          2.69690        0.95040        1.37880
C          0.65570       -0.64000        1.25600
H         -0.18750        1.93120       -1.03740
H         -1.06380        1.74970        0.48930
H          0.66790        2.12590        0.51640
H         -0.64790       -0.46960       -0.46780
H          3.24430       -2.44630       -0.54870
H          2.52760       -3.10420        0.93150
H          1.59290       -3.09040       -0.58050
H          2.50840       -0.82210        2.41140
H          2.71130        1.10900        0.42470
H          0.01800       -1.14380        1.97150
