18
gdb 11971	2.82277	2.00543	1.72192	3.0249	67.72	-0.2548	0.0655	0.3203	869.9503	0.151755	-384.906303	-384.898143	-384.897199	-384.938336	31.307
C         -0.50130        1.45790        0.06890
C          0.03100        0.03600        0.00730
O         -0.98770       -0.88350       -0.36280
C          1.36200       -0.23380       -0.77390
C          1.82270       -1.19360        0.36440
C          0.74220       -0.56020        1.23880
C          0.87200        0.02160        2.57610
O          0.09660       -1.16140        2.33610
H          0.26940        2.16120        0.39850
H         -0.84650        1.78290       -0.92070
H         -1.35040        1.51540        0.75700
H         -1.30340       -0.63070       -1.23750
H          1.23410       -0.67360       -1.76510
H          1.98810        0.65880       -0.85130
H          1.58890       -2.23700        0.14120
H          2.85740       -1.11860        0.70500
H          1.79370       -0.12780        3.13790
H          0.29820        0.90560        2.85120
