22
gdb 7495	3.8533	1.23133	1.14928	0.9574	78.78	-0.2406	0.0847	0.3253	1188.7532	0.198808	-350.198443	-350.189173	-350.188229	-350.232414	34.549
C          0.05440        1.54850       -0.11220
C          0.08070        0.03040       -0.02610
O         -1.24300       -0.44020       -0.20310
C         -1.45850       -1.81530        0.05070
C         -0.71420       -2.71360       -0.93710
C         -1.32190       -2.28140        1.53830
C         -2.70540       -2.97450        1.40670
C         -2.97410       -2.12850        0.13320
H          1.06290        1.95710        0.00420
H         -0.34010        1.86820       -1.08110
H         -0.58490        1.96680        0.67040
H          0.75220       -0.37850       -0.79650
H          0.47500       -0.29070        0.95130
H          0.37110       -2.64930       -0.81020
H         -0.99900       -3.76050       -0.79360
H         -0.96150       -2.42850       -1.96480
H         -0.46220       -2.90300        1.80230
H         -1.36340       -1.42120        2.21190
H         -2.61580       -4.04190        1.18860
H         -3.40140       -2.85300        2.23880
H         -3.52570       -1.21260        0.35700
H         -3.43100       -2.62190       -0.72850
