14
gdb 3044	6.96165	1.50077	1.31464	3.9173	56.06	-0.2595	0.0234	0.2829	884.4108	0.112774	-361.677841	-361.670668	-361.669724	-361.709863	24.483
N         -0.31080        0.99970        0.33660
C         -0.47430       -0.25030        0.36800
O         -0.60360       -0.93390       -0.79360
C         -0.85460       -2.33190       -0.67980
C         -2.28920       -2.62360       -0.32280
C         -2.65120       -3.82580        0.43700
O         -2.61720       -2.54570        1.06870
H         -0.21500        1.35810        1.28460
H         -0.52590       -0.88720        1.25910
H         -0.61590       -2.74950       -1.66230
H         -0.18950       -2.78960        0.06430
H         -3.03130       -2.17550       -0.98350
H         -3.64060       -4.26170        0.31140
H         -1.87360       -4.52210        0.74870
