18
gdb 16176	4.38581	1.57431	1.36394	2.3906	67.34	-0.2517	0.0826	0.3342	959.8619	0.153837	-384.929736	-384.922056	-384.921112	-384.961854	28.64
C          0.25780        1.47820        0.21920
C         -0.17030        0.04510       -0.12610
C          0.52460       -0.49010       -1.35100
C          0.25060        0.07220       -2.73740
O          0.81260       -0.85210       -3.66110
C          0.91490       -2.13570       -3.05450
C          0.95390       -1.87620       -1.56670
O          1.90630       -0.86870       -1.20520
H          1.34020        1.52870        0.36930
H         -0.00530        2.18110       -0.57790
H         -0.23020        1.81920        1.13670
H          0.05370       -0.61880        0.71540
H         -1.25520        0.00450       -0.28590
H         -0.83820        0.17770       -2.87980
H          0.72010        1.04500       -2.91560
H          0.04860       -2.77440       -3.29540
H          1.82000       -2.61610       -3.44040
H          0.79360       -2.67660       -0.84890
