12
gdb 5163	7.99309	1.25911	1.11803	2.665	59.08	-0.2431	-0.0102	0.2329	982.6319	0.084608	-414.672367	-414.665657	-414.664713	-414.704451	23.172
N          0.05850        1.21650        0.32060
C         -0.05190        0.01940       -0.03650
O         -1.05570       -0.73810        0.51940
C         -1.09500       -2.04630        0.22160
C         -2.09950       -2.87660       -0.13980
N         -1.58990       -4.16940       -0.22260
C         -0.34230       -4.04960        0.07860
O          0.04880       -2.77770        0.37360
H          0.82580        1.66410       -0.17670
H          0.55270       -0.53800       -0.75740
H         -3.13120       -2.64170       -0.33880
H          0.42230       -4.80850        0.12040
