18
gdb 8041	3.31781	1.87036	1.48097	2.1803	66.85	-0.2491	0.0654	0.3145	893.019	0.153202	-384.907928	-384.900089	-384.899145	-384.939766	30.466
O          0.55130        0.73950       -0.86730
C          0.01320       -0.26220       -0.04400
C          0.09590       -0.12750        1.50970
C         -1.37490       -0.64830        1.60750
O         -1.55770       -1.91310        2.17550
C         -2.42860        0.45440        1.85160
C         -2.35490        0.81510        0.33630
C         -1.51600       -0.46850        0.05630
H          0.13110        1.57570       -0.64030
H          0.49020       -1.19120       -0.36820
H          0.84340       -0.75800        1.99680
H          0.22450        0.90430        1.85360
H         -1.28110       -1.87350        3.09790
H         -3.39250        0.00880        2.11190
H         -2.18760        1.23820        2.57680
H         -3.31630        0.85280       -0.17770
H         -1.83470        1.75540        0.12330
H         -1.98360       -1.21340       -0.58760
