15
gdb 1394	6.62583	1.42684	1.22993	0.1459	68.84	-0.2592	0.0391	0.2983	942.8225	0.122016	-271.319942	-271.311759	-271.310815	-271.352034	29.706
C         -0.05160        1.57870       -0.03140
C         -0.03350        0.03960        0.00560
C          0.76450       -0.50370        1.22870
C          2.17050       -0.12200        1.20630
C          3.32930        0.19540        1.16400
C         -1.38760       -0.50940        0.01690
C         -2.50290       -0.95680        0.05160
H          0.97080        1.96470       -0.04700
H         -0.57790        1.93630       -0.91970
H         -0.56260        1.97880        0.84980
H          0.47700       -0.31980       -0.89720
H          0.29030       -0.13920        2.14810
H          0.67860       -1.59580        1.24930
H          4.35490        0.46960        1.14070
H         -3.48780       -1.35340        0.06690
