15
gdb 13956	5.18832	1.34254	1.24373	4.86	65.12	-0.2688	0.0253	0.2941	975.4175	0.118684	-362.639246	-362.632019	-362.631075	-362.671217	26.548
N         -0.06160       -1.10810       -0.45430
C         -0.06040        0.02570       -0.23380
C         -0.04870        1.46020        0.06540
C          1.34690        2.00850        0.19510
C          2.41550        1.69030        1.25560
C          2.98350        3.13900        1.04100
C          1.88310        3.36620       -0.00440
O          2.04120        2.34900       -1.00700
H         -0.57320        1.99610       -0.73220
H         -0.60530        1.62210        0.99610
H          2.00350        1.54700        2.25730
H          3.07160        0.85470        1.00580
H          2.87570        3.76800        1.92730
H          4.00220        3.21660        0.65610
H          1.39790        4.28600       -0.31140
