13
gdb 8982	4.64169	0.98078	0.81771	3.1455	59.69	-0.2721	-0.114	0.158	1265.6293	0.092883	-398.632483	-398.624086	-398.623142	-398.666843	27.62
O         -0.89100        1.43720        0.19350
C          0.15790        0.98690       -0.18210
C          1.43550        1.82930       -0.30780
O          2.44710        1.29270       -0.69460
C          1.33080        3.28940        0.06750
C          2.67290        4.01600       -0.10260
C          2.58140        5.42770        0.25910
N          2.49530        6.54280        0.54850
H          0.30880       -0.07300       -0.47360
H          0.54320        3.74960       -0.54090
H          0.96260        3.35850        1.09790
H          3.44100        3.53620        0.51220
H          3.01770        3.93180       -1.13810
