22
gdb 7280	3.76736	1.05019	0.87358	2.8603	79.35	-0.2469	-0.018	0.2289	1360.941	0.197046	-350.226754	-350.216433	-350.215489	-350.262676	36.636
C         -0.06750        1.55050        0.08140
C         -0.03660        0.01520       -0.00140
C         -1.47800       -0.51910        0.00370
C          0.77880       -0.48500       -1.22320
C          2.19100        0.12240       -1.28090
C          0.88340       -2.02720       -1.25920
C          1.45400       -2.53460       -2.56280
O          2.38810       -3.28630       -2.67320
H          0.92570        1.98160        0.22530
H         -0.49430        1.98440       -0.83130
H         -0.69050        1.87430        0.92120
H          0.46730       -0.35890        0.90240
H         -2.00790       -0.22510       -0.91070
H         -1.52860       -1.60790        0.08530
H         -2.03450       -0.10740        0.85160
H          0.23450       -0.16870       -2.12710
H          2.16700        1.20290       -1.43630
H          2.73760       -0.07430       -0.35080
H          2.77600       -0.31240       -2.09760
H          1.49740       -2.40600       -0.43540
H         -0.11520       -2.47400       -1.17120
H          0.91980       -2.15310       -3.46690
