20
gdb 18054	3.30383	2.07308	1.52606	1.6752	73.76	-0.2393	0.0826	0.3219	896.2383	0.180584	-349.006566	-348.999643	-348.998699	-349.037636	27.58
C          0.00230        1.55840        0.07970
O          1.43980        1.54190       -0.05000
C          1.38480        0.17560       -0.53690
C          2.51040       -0.71680       -0.04390
C          2.33950       -1.16690        1.41240
C          0.93360       -1.73910        1.63640
C         -0.12370       -0.64600        1.42660
C         -0.05050        0.01670        0.03570
H         -0.32530        2.04960        1.00290
H         -0.47450        2.04990       -0.78090
H          1.37480        0.18470       -1.63820
H          2.54090       -1.60330       -0.69220
H          3.46020       -0.18890       -0.19090
H          3.10570       -1.90890        1.66070
H          2.49350       -0.31370        2.08470
H          0.76160       -2.57570        0.94420
H          0.84100       -2.14810        2.64840
H         -1.13070       -1.04430        1.59120
H          0.03330        0.11860        2.19780
H         -0.77660       -0.42350       -0.65210
