13
gdb 873	6.45502	2.19638	1.65676	2.0265	57.35	-0.1783	0.0406	0.2189	715.172	0.103132	-340.656176	-340.649457	-340.648513	-340.686492	24.934
N         -0.00480        1.37050        0.04170
C         -0.10960       -0.01920        0.04570
C         -1.17300       -0.85710        0.06560
C         -0.66640       -2.20200        0.03980
C          0.69120       -2.08070        0.01590
N          1.73430       -2.99820        0.07560
O          1.06300       -0.78060        0.01710
H          0.53980        1.71970        0.82450
H          0.41540        1.72880       -0.81090
H         -2.20560       -0.54630        0.09030
H         -1.23120       -3.12040        0.04250
H          1.44690       -3.92450       -0.20930
H          2.54360       -2.70090       -0.45580
