17
gdb 13881	4.11175	1.5225	1.43199	1.107	64.29	-0.2524	0.014	0.2665	933.3542	0.143011	-401.015096	-401.007291	-401.006347	-401.047504	28.637
C          0.03890        1.52400        0.18220
C         -0.05210        0.01190       -0.01930
O         -1.39880       -0.43710       -0.07310
C          0.70920       -0.45790       -1.27410
C          0.71450       -1.99870       -1.44550
O          0.15150       -2.21200       -2.76750
C         -0.21550       -0.98900       -3.19620
N          0.03020        0.03790       -2.49240
H          1.07590        1.83850        0.34150
H         -0.34170        2.05020       -0.69850
H         -0.55120        1.81920        1.05350
H          0.38230       -0.49740        0.85050
H         -1.78050       -0.04920       -0.87110
H          1.72570       -0.04800       -1.24550
H          1.70990       -2.44660       -1.42740
H          0.06470       -2.49730       -0.72150
H         -0.70810       -0.98290       -4.16290
