15
gdb 2889	6.66262	1.80917	1.53272	1.0187	62.45	-0.2516	0.0498	0.3015	791.5825	0.125742	-308.487195	-308.48032	-308.479375	-308.518824	24.827
C         -0.23560       -1.19720       -0.49310
C         -0.11600       -0.03630       -0.20390
C          0.04990        1.36200        0.15290
C         -0.45700        1.74160        1.57560
C          0.57100        2.80010        2.05370
O          1.46600        3.03050        0.96920
C          1.52030        1.83790        0.21570
H         -0.34570       -2.22040       -0.75450
H         -0.46700        1.98690       -0.58430
H         -1.47670        2.12980        1.54260
H         -0.45540        0.86460        2.22610
H          0.11730        3.76000        2.31450
H          1.12290        2.43290        2.93150
H          2.14320        1.07130        0.70460
H          1.94590        2.06750       -0.76350
