16
gdb 19985	3.62748	1.67203	1.31883	2.8666	70.89	-0.2334	0.0299	0.2632	940.3201	0.130875	-342.688594	-342.680954	-342.680009	-342.720764	28.578
C          0.05880       -1.17560        0.42410
C          0.08820        0.01480        0.26080
C          0.08930        1.43250        0.03070
N          0.73390        2.30080        1.04800
C          1.33130        2.21670       -0.28320
C          2.69580        1.60070       -0.36810
C          3.77900        2.14150        0.49460
N          3.22310        0.80270        0.73950
H          0.05270       -2.22680        0.57410
H         -0.82610        1.81210       -0.41930
H          0.20080        3.15780        1.16310
H          1.17720        3.05590       -0.96160
H          2.95010        1.22100       -1.35580
H          4.80470        2.16080        0.13730
H          3.51330        2.94180        1.18090
H          2.56120        0.85660        1.51280
