17
gdb 3129	5.2832	2.10442	1.83153	1.5483	64.27	-0.2286	0.0804	0.309	762.1634	0.148155	-309.680919	-309.673922	-309.672978	-309.71184	26.245
C         -0.11590        1.51270       -0.05430
C          0.10200       -0.00390        0.04080
C          0.71790       -0.56410       -1.20250
C          0.01220       -0.99470       -2.45370
C          0.95600       -1.95580       -1.75110
C          2.38520       -1.48340       -1.97460
O          2.05540       -0.14100       -1.52690
H          0.83150        2.02440       -0.24640
H         -0.80300        1.76100       -0.86950
H         -0.53430        1.90740        0.87620
H          0.75140       -0.23180        0.89500
H         -0.85170       -0.51490        0.21830
H         -1.04060       -1.23560       -2.34040
H          0.28500       -0.55440       -3.40940
H          0.65030       -2.92550       -1.38170
H          3.11500       -1.94480       -1.29930
H          2.77300       -1.49570       -3.00070
