18
gdb 6024	2.67913	1.74236	1.40404	2.4843	69.49	-0.2623	0.0346	0.2969	974.3105	0.149077	-384.902454	-384.892504	-384.89156	-384.936207	36.669
C          0.02030        1.56530       -0.12950
C         -0.04090        0.04350       -0.01330
O          0.51040       -0.58330       -1.16140
C          0.74930       -0.49800        1.21680
C          0.84810       -2.02870        1.16850
O          2.09690       -0.02020        1.21610
C          0.06050       -0.06790        2.44430
C         -0.48210        0.30540        3.45050
H          1.05280        1.88720       -0.29300
H         -0.58080        1.90680       -0.97960
H         -0.37360        2.04840        0.76930
H         -1.08900       -0.26800        0.12710
H          0.13930       -0.15650       -1.93920
H          1.41200       -2.31840        0.28170
H          1.36030       -2.38880        2.06270
H         -0.14690       -2.47830        1.12180
H          2.09320        0.88130        1.55350
H         -0.96040        0.62510        4.34350
