17
gdb 1628	3.61348	1.99434	1.40803	3.0994	60.93	-0.2447	-0.0154	0.2293	877.0456	0.145215	-346.867382	-346.858616	-346.857672	-346.900579	30.661
C          0.03730        1.59290        0.13270
C         -0.00700        0.06990        0.02260
O          0.75270       -0.54600        1.06220
C         -1.43470       -0.51050        0.00140
C         -2.22050       -0.15100       -1.27280
C         -1.34670       -2.02420        0.11280
O         -1.96480       -2.69290        0.89890
H          1.07640        1.92520        0.20190
H         -0.42170        2.07970       -0.73250
H         -0.49210        1.93360        1.03090
H          0.50570       -0.23730       -0.89840
H          0.33390       -0.33270        1.90420
H         -1.98510       -0.15770        0.88330
H         -3.22390       -0.58500       -1.24410
H         -2.32660        0.93160       -1.38010
H         -1.71390       -0.52970       -2.16780
H         -0.66890       -2.49460       -0.63770
