12
gdb 21904	5.61924	1.64832	1.27447	2.6342	61.8	-0.2343	-0.0733	0.161	864.723	0.084574	-414.645534	-414.63915	-414.638206	-414.676137	24.231
O         -0.06650        1.29150       -0.33270
C          0.01170       -0.01630       -0.01950
N          1.17880       -0.53470        0.13480
O          1.22560       -1.89860        0.46040
C          0.09370       -2.67750        0.61570
N          0.18860       -3.91010        0.91140
C         -1.18980       -2.02140        0.42550
C         -1.24400       -0.72010        0.11450
H          0.83920        1.63000       -0.38920
H          1.16830       -4.18520        1.00280
H         -2.06750       -2.64270        0.55000
H         -2.16750       -0.17610       -0.03940
