14
gdb 9035	4.96987	1.1701	1.03026	2.339	67.37	-0.2539	-0.0655	0.1884	1095.3773	0.105251	-378.697313	-378.688931	-378.687987	-378.730343	29.982
N         -0.23550        0.74090       -0.96250
C         -0.24190       -0.27760       -0.05620
C          1.09880       -0.92010        0.16170
O          2.08250       -0.61320       -0.46680
N         -1.19760       -0.74440        0.66210
C         -2.52010       -0.13120        0.54010
C         -3.10200       -0.16070       -0.80570
C         -3.55030       -0.18060       -1.92210
H          0.61920        0.81960       -1.49640
H         -1.09470        0.97320       -1.43710
H          1.08870       -1.69890        0.94590
H         -3.19510       -0.65140        1.22770
H         -2.47560        0.91680        0.87960
H         -3.97000       -0.21840       -2.89730
