18
gdb 12234	3.11673	1.5052	1.18059	2.8232	68.3	-0.2364	-0.015	0.2214	1048.2188	0.15202	-384.945209	-384.936473	-384.935529	-384.978668	31.582
C         -0.54450        1.41760        0.12430
C          0.02690        0.00900        0.02150
C          0.62820       -0.58060       -1.30560
C          1.08800        0.45630       -2.31590
O          1.79570       -0.23150       -3.33640
C          1.81210       -1.19310       -0.49380
C          1.38380       -0.30000        0.68020
O          1.92720        0.10600        1.66700
H          0.14630        2.16790       -0.27140
H         -1.49220        1.50770       -0.41590
H         -0.72870        1.66550        1.17380
H         -0.69820       -0.71280        0.42110
H         -0.00790       -1.30990       -1.81100
H          0.21920        0.99590       -2.72440
H          1.73340        1.20230       -1.82210
H          2.12340        0.41700       -3.96650
H          1.68290       -2.25520       -0.26330
H          2.81870       -1.04190       -0.89000
