18
gdb 16226	2.79058	2.39771	1.46493	1.6048	75.24	-0.2059	0.0237	0.2296	896.7257	0.15324	-347.799717	-347.791996	-347.791052	-347.831665	29.441
C         -0.15610        1.48640        0.02560
C         -0.04820       -0.00360       -0.00790
C          0.07100       -0.80150       -1.06900
C          0.14770       -2.23640       -0.63400
O          0.06110       -2.19580        0.79030
C         -0.05960       -0.85290        1.21390
C          0.59920       -0.48440        2.51880
C         -0.91170       -0.59220        2.42980
H          0.66330        1.93430        0.60090
H         -0.12810        1.90600       -0.98280
H         -1.09040        1.80970        0.50040
H          0.10980       -0.49070       -2.10540
H         -0.67460       -2.84890       -1.03770
H          1.08950       -2.72330       -0.93410
H          1.12750       -1.28410        3.02540
H          1.04580        0.49850        2.62530
H         -1.50210        0.31680        2.47530
H         -1.37710       -1.46280        2.87790
