16
gdb 17368	3.94849	1.80751	1.47568	2.265	63.62	-0.2387	0.0233	0.262	861.8171	0.131518	-379.905741	-379.898303	-379.897359	-379.937873	27.883
N          0.37410        0.36290        0.91490
C         -0.07910        0.35750       -0.36940
O          0.43460        0.98630       -1.27440
C         -1.33730       -0.47970       -0.56490
C         -1.55410       -1.20100       -1.91550
C         -1.58670       -2.49440       -1.10060
C         -0.35210       -2.64490       -0.31410
N         -1.41650       -1.76680        0.22810
H          1.22140        0.86270        1.12870
H         -0.01780       -0.26420        1.59780
H         -2.19490        0.14100       -0.28780
H         -2.50590       -0.94670       -2.38280
H         -0.75530       -1.10750       -2.65410
H         -2.31140       -3.29380       -1.21160
H         -0.22910       -3.54930        0.27320
H          0.57610       -2.20460       -0.67250
