17
gdb 5919	3.70207	1.25859	1.23334	2.5281	68.92	-0.2696	-0.05	0.2196	1046.5781	0.139354	-363.891342	-363.882065	-363.881121	-363.925854	32.401
C          0.26870        1.56000        0.12150
C          0.04430        0.03330        0.02510
C          0.70710       -0.68830        1.21890
C         -1.48050       -0.31120       -0.05710
C         -2.26580        0.27060        1.10530
O         -2.36210       -0.26030        2.18240
C          0.66130       -0.45090       -1.22110
N          1.14300       -0.82900       -2.20160
H          1.33600        1.79150        0.08770
H         -0.22060        2.08800       -0.70160
H         -0.13000        1.93910        1.06730
H          0.22220       -0.39160        2.15140
H          0.61780       -1.77290        1.11850
H          1.76890       -0.43440        1.27460
H         -1.88480        0.07700       -0.99710
H         -1.59830       -1.39830       -0.04440
H         -2.75870        1.24840        0.90860
