12
gdb 11682	5.12091	1.56278	1.36566	2.8013	62.48	-0.2885	-0.0288	0.2597	860.4213	0.084038	-377.496993	-377.490526	-377.489582	-377.52772	24.139
N         -0.03250        1.18040       -0.06070
C         -0.05750       -0.06400        0.02420
O          0.98870       -0.98860        0.17680
C          0.05090       -2.08190        0.01480
C         -0.94040       -2.06080        1.13340
C         -1.12350       -1.11070       -0.04350
C          0.41100       -3.18590       -0.80830
N          0.69040       -4.09530       -1.46580
H          0.91640        1.55050        0.00860
H         -1.64700       -2.88390        1.15710
H         -0.61330       -1.68770        2.09810
H         -1.99800       -1.10900       -0.67640
