15
gdb 9233	4.40949	1.19271	1.03185	2.4843	63.92	-0.263	0.0023	0.2653	1105.5378	0.118207	-395.992672	-395.983972	-395.983027	-396.026409	30.563
N         -0.26560        1.14710       -0.50390
C         -0.11670       -0.15640       -0.12350
C          1.31610       -0.66960       -0.06190
O          1.38830       -1.95380        0.47500
N         -1.02720       -0.98980        0.22220
C         -2.42230       -0.59090        0.26940
C         -2.95140       -0.03760       -0.99080
N         -3.31050        0.43180       -1.98510
H          0.53980        1.60680       -0.90000
H         -1.14670        1.44810       -0.89420
H          1.72760       -0.63970       -1.08620
H          1.91110        0.03800        0.53780
H          0.45900       -2.22020        0.59220
H         -3.02770       -1.46380        0.53230
H         -2.59670        0.16230        1.05320
