18
gdb 14441	4.13738	2.06999	1.80557	1.554	70.56	-0.2189	0.0901	0.309	808.6109	0.155317	-347.783392	-347.776729	-347.775785	-347.813755	26.961
C         -0.01200        1.46820       -0.04730
C         -0.03320       -0.02270        0.01820
O          0.83310       -0.73930       -0.87470
C         -0.08040       -1.88750       -0.81310
C          0.51230       -2.89580        0.16490
C          0.61540       -2.07440        1.48260
C         -0.30590       -0.87500        1.24760
C         -1.11600       -1.05810       -0.02760
H          0.96960        1.85340        0.25080
H         -0.22030        1.81630       -1.06400
H         -0.76200        1.89110        0.62750
H         -0.33050       -2.25260       -1.81080
H         -0.16430       -3.75140        0.27750
H          1.48040       -3.27050       -0.17890
H          0.29020       -2.65540        2.35030
H          1.64500       -1.75550        1.66920
H         -0.77270       -0.37190        2.08780
H         -2.18920       -1.00560       -0.14820
