10
gdb 23770	3.39784	2.41396	1.41131	2.6092	52.03	-0.2676	-0.076	0.1916	755.9081	0.060752	-458.606402	-458.600526	-458.599582	-458.636641	21.371
F         -0.02030        0.02560        0.00440
C         -0.05250        1.34880        0.01130
C         -1.20910        2.04360        0.02960
N         -1.23750        3.42470        0.03680
C         -0.10100        4.01060        0.02510
O          1.10570        3.42120        0.00660
C          1.23980        2.01740       -0.00200
O          2.33040        1.53340       -0.01840
H         -2.16390        1.52850        0.03930
H         -0.01550        5.09240        0.02930
