13
gdb 9091	6.50143	0.98175	0.89423	1.832	56.57	-0.2937	-0.0124	0.2813	1181.7705	0.093528	-435.754024	-435.745686	-435.744742	-435.787643	28.033
O         -0.40050        1.09680       -0.46560
C          0.04100       -0.21190       -0.17080
C          0.98940       -0.76190       -1.25380
O          0.29330       -0.85860       -2.48450
C          0.35320        0.19990       -3.33080
O         -0.27350        0.24180       -4.34160
C          0.68870       -0.29460        1.15030
N          1.23540       -0.33120        2.16750
H          0.30920        1.71920       -0.26730
H         -0.85930       -0.83540       -0.16310
H          1.87020       -0.11210       -1.34180
H          1.32560       -1.76810       -0.99250
H          1.05500        0.98210       -2.98680
