15
gdb 16476	3.0694	2.67738	1.72911	2.8721	65.12	-0.2446	-0.0109	0.2337	769.3428	0.11923	-362.628292	-362.621586	-362.620641	-362.658998	25.503
C          0.04040        1.50270        0.01680
C         -0.10050        0.01530        0.01040
C         -0.00310       -0.86620        1.22410
C         -0.54660       -2.25690        0.92470
C          0.13470       -2.04670       -0.44200
N          1.07620       -0.96450        0.20300
C         -0.60570       -0.87260       -1.08240
O         -1.13250       -0.67710       -2.14100
H          0.75850        1.82160        0.77750
H          0.38450        1.86030       -0.95770
H         -0.92190        1.97760        0.23360
H          0.18720       -0.41850        2.19450
H         -0.02560       -3.00830        1.52330
H         -1.62460       -2.44190        0.94510
H          0.55140       -2.85500       -1.03690
