18
gdb 20538	4.37281	1.31859	1.29897	2.2553	73.18	-0.2324	0.0267	0.2591	1037.3861	0.155452	-344.014684	-344.006676	-344.005731	-344.047553	29.652
C          0.02520        1.55860       -0.00110
C          0.00620        0.01960        0.04100
C          0.79710       -0.50620        1.25290
C         -1.40080       -0.51830        0.02160
C         -1.98880       -1.31810       -0.93840
N         -3.26270       -1.54880       -0.53300
N         -3.55970       -0.95330        0.63570
C         -2.43510       -0.32900        0.97380
H          1.05340        1.93500       -0.02750
H         -0.50200        1.93630       -0.88200
H         -0.46240        1.98050        0.88460
H          0.50770       -0.34360       -0.86570
H          1.82890       -0.13930        1.23380
H          0.34150       -0.17340        2.19190
H          0.82120       -1.59980        1.26480
H         -1.60110       -1.72900       -1.85780
H         -3.96950       -2.09310       -0.99670
H         -2.40210        0.23870        1.89270
