9
gdb 23831	4.02515	2.01835	1.34428	4.1882	47.91	-0.3	-0.1167	0.1833	772.233	0.047833	-474.61587	-474.61	-474.609056	-474.646444	20.824
F          0.04140        0.07830        0.00270
C         -0.02190        1.39170        0.01110
N         -1.16040        1.95680        0.02920
C         -1.18250        3.34640        0.03730
O         -2.15490        4.02830        0.05390
O          0.07090        4.02330        0.02460
N          1.26960        3.37650        0.00520
C          1.23930        2.08960       -0.00160
H          2.19000        1.57080       -0.01710
