18
gdb 9803	2.92703	1.54416	1.33136	3.3481	68.18	-0.2371	-0.018	0.2191	1007.4641	0.150797	-384.933577	-384.924554	-384.923609	-384.96757	32.731
C          0.10960        1.43810        0.19280
C          0.00150       -0.08720        0.01190
C         -1.46240       -0.49480       -0.03600
O         -2.02990       -1.10270        0.83560
C          0.70810       -0.56100       -1.25640
O          0.25260        0.04770       -2.43940
C          2.15920       -0.96950       -1.19500
C          1.07180       -2.00640       -1.40820
H          1.15910        1.75040        0.19090
H         -0.40900        1.97030       -0.61200
H         -0.33750        1.75180        1.13980
H          0.44340       -0.59080        0.87760
H         -1.99230       -0.17820       -0.96140
H          0.62330        0.93600       -2.48010
H          2.77390       -0.71690       -2.05200
H          2.67160       -0.94190       -0.23920
H          0.83690       -2.68540       -0.59600
H          0.97400       -2.42680       -2.40190
