18
gdb 15914	3.36593	1.86289	1.50903	0.7567	78.09	-0.2426	0.0418	0.2843	906.9539	0.153751	-310.612958	-310.605308	-310.604364	-310.646507	29.396
C         -0.02570       -1.21240       -0.27790
C         -0.01480       -0.01900       -0.11710
C          0.00790        1.40590        0.07420
C         -0.50890        2.30450       -1.09610
C          0.80040        3.14540       -1.04940
C          1.33870        2.27920        0.11620
C          0.95960        2.78140        1.53080
C         -0.35790        1.95310        1.49300
H         -0.03820       -2.26440       -0.41950
H         -0.63750        1.75000       -2.02720
H         -1.43900        2.83690       -0.87930
H          1.39320        3.06400       -1.96340
H          0.68100        4.20750       -0.81670
H          2.32620        1.83500       -0.00810
H          1.64950        2.44790        2.30950
H          0.84500        3.86550        1.62130
H         -1.29110        2.52190        1.52790
H         -0.40340        1.16850        2.24990
