17
gdb 12129	3.9385	1.69626	1.67863	1.0721	68.17	-0.204	0.0756	0.2797	866.1701	0.141098	-363.773232	-363.76582	-363.764876	-363.8042	29.672
C         -0.03810        1.52460        0.03630
C          0.09990        0.03600        0.00970
N         -0.85180       -0.87450        0.70360
C          0.60660       -0.92840        1.00550
C          1.32080       -1.74300       -0.12330
O          2.62410       -2.18310        0.01270
C          0.36780       -2.22540       -1.18000
C          0.78920       -0.76520       -1.14420
H          0.90050        2.00980       -0.25310
H         -0.81660        1.86520       -0.65710
H         -0.30180        1.87640        1.03980
H         -1.28870       -0.33360        1.45090
H          0.99440       -0.77250        2.00500
H          2.60120       -3.08790        0.34490
H          0.85980       -2.78610       -1.96950
H         -0.64760       -2.51990       -0.94720
H          1.30840       -0.29090       -1.96680
