20
gdb 14551	4.1059	1.4425	1.37279	1.3558	75.05	-0.2488	0.0753	0.3241	1004.7368	0.176929	-348.969902	-348.961554	-348.96061	-349.002246	31.951
C         -0.06680        1.58490        0.14360
C          0.01510        0.07100        0.08210
C         -1.24280       -0.56880       -0.47040
O         -1.40620       -0.15640       -1.82360
C          1.26590       -0.69030       -0.28920
C          2.53630       -0.02440        0.25350
C          1.94650       -0.10820        1.69920
C          0.68920       -0.78060        1.13180
H          0.86420        2.04780        0.47630
H         -0.30960        1.98370       -0.84520
H         -0.85780        1.90020        0.83520
H         -1.16290       -1.66550       -0.40170
H         -2.10890       -0.26140        0.13800
H         -2.27310       -0.44670       -2.12150
H          1.24390       -1.42670       -1.08430
H          3.41940       -0.65680        0.13820
H          2.77440        0.97000       -0.13720
H          2.52510       -0.77910        2.33790
H          1.79830        0.83360        2.23700
H          0.16710       -1.60560        1.60510
