13
gdb 627	7.41334	2.70699	2.32818	2.4621	50.98	-0.257	-0.0237	0.2334	575.1919	0.107728	-286.486509	-286.480161	-286.479216	-286.51658	21.929
C         -0.36800        1.47620        0.08210
C          0.17040        0.06840       -0.04620
O          0.56020       -0.57440        0.90750
C          0.20260       -0.51980       -1.42440
C          1.48960       -1.17400       -1.83210
N          0.31800       -1.98150       -1.52970
H          0.15550        2.15080       -0.60470
H         -1.42680        1.49440       -0.20220
H         -0.25990        1.82770        1.10840
H         -0.40760       -0.03930       -2.18360
H          1.78260       -1.14320       -2.87770
H          2.30220       -1.14370       -1.11150
H          0.40720       -2.33050       -0.57390
