19
gdb 1318	3.31609	2.42682	2.04733	1.7442	67.01	-0.24	0.0777	0.3176	773.9021	0.170167	-310.913156	-310.905055	-310.904111	-310.944991	30.107
C         -0.42140        1.43070       -0.01320
C          0.20220        0.05100       -0.05450
O          1.50010        0.04270       -0.69420
C          2.04020       -0.82090        0.32360
C          0.79170       -0.63160        1.22280
C          1.05040        0.30810        2.40020
C          0.08180       -1.90350        1.67510
H          0.21780        2.15010        0.50410
H         -0.58040        1.79220       -1.03440
H         -1.39510        1.39910        0.48790
H         -0.47910       -0.63740       -0.58020
H          2.18310       -1.84780       -0.04260
H          2.99350       -0.44700        0.71650
H          1.59780        1.20380        2.09250
H          0.11510        0.62790        2.87270
H          1.65000       -0.19980        3.16420
H          0.67370       -2.44070        2.42510
H         -0.88960       -1.67280        2.12790
H         -0.09280       -2.58400        0.83540
