20
gdb 6031	3.0346	1.49287	1.29966	1.3187	70.85	-0.2387	-0.0093	0.2294	1049.0178	0.173218	-386.1625	-386.15226	-386.151316	-386.197251	36.663
C         -0.00070        1.49040       -0.10460
C          0.02530       -0.02020        0.06940
O          1.07640       -0.60280        0.22560
C         -1.31150       -0.77990        0.03960
C         -2.07960       -0.48020        1.34850
C         -2.15880       -0.35520       -1.17710
C         -1.00270       -2.28500       -0.03650
O         -2.23790       -2.99150       -0.05730
H          0.96580        1.89870        0.19360
H         -0.17430        1.73450       -1.15870
H         -0.80240        1.96220        0.46970
H         -2.39370        0.56580        1.40600
H         -2.97100       -1.11010        1.39110
H         -1.46450       -0.70240        2.22680
H         -1.60770       -0.49390       -2.11390
H         -3.05800       -0.97330       -1.22400
H         -2.46450        0.69260       -1.11290
H         -0.41160       -2.49070       -0.94050
H         -0.38900       -2.57470        0.82550
H         -2.04160       -3.93210       -0.05780
