13
gdb 3787	7.78489	2.08781	1.67481	4.112	55.35	-0.2148	0.0364	0.2512	713.2982	0.10471	-336.836792	-336.830311	-336.829366	-336.867258	22.815
C          0.10710        1.39220       -0.08210
N         -0.17770       -0.01230        0.14360
C          0.54630       -0.73470        1.05400
N          0.63860       -2.05530        1.08900
C          1.41160       -2.26720        2.19290
N          1.80980       -1.19100        2.83880
N          1.24180       -0.19560        2.08240
H          1.15340        1.58850       -0.36080
H         -0.53900        1.75890       -0.88150
H         -0.12710        1.97790        0.81470
H         -0.41490       -0.56010       -0.66920
H          1.68990       -3.25670        2.52490
H          1.36390        0.76540        2.34860
