15
gdb 18816	4.17167	2.23837	1.82612	2.7463	63.37	-0.2424	-0.0239	0.2185	734.5042	0.121156	-362.645228	-362.639381	-362.638436	-362.675103	23.41
O          0.00630        0.01960        0.14890
C         -0.01810        1.21440        0.02530
C         -1.26480        2.11410       -0.03560
C         -0.68470        3.46780       -0.37730
C          0.42460        4.06250        0.41370
C          1.20680        3.03420        1.21740
C          1.16870        2.15800       -0.07410
N          0.71300        3.35620       -0.89580
H         -1.93950        1.75380       -0.81880
H         -1.81120        2.07060        0.91220
H         -1.29080        4.16650       -0.94450
H          0.52920        5.13920        0.50790
H          2.22380        3.37510        1.41830
H          0.77490        2.63470        2.14040
H          2.09290        1.69470       -0.41050
