14
gdb 18307	3.84754	2.18645	1.58363	2.0967	62.85	-0.2467	-0.0586	0.1881	775.9543	0.108905	-382.547265	-382.541123	-382.540179	-382.577738	23.259
O         -0.03840        0.01920        0.27700
C         -0.05480        1.20300        0.03520
C         -1.25410        2.05630       -0.19150
C         -0.90240        3.32350       -0.44270
C          0.59430        3.50920       -0.44010
O          1.07570        4.10030        0.79790
C          1.60220        2.83010        1.23770
C          1.15810        2.12630       -0.07350
H         -2.25950        1.65980       -0.12140
H         -1.58370        4.15360       -0.59430
H          0.97940        4.04190       -1.31540
H          2.68660        2.87400        1.38220
H          1.12690        2.47360        2.15880
H          1.95860        1.69580       -0.67270
