17
gdb 3473	4.35733	2.87744	2.5795	0.4827	67.72	-0.2333	0.1046	0.3379	641.0551	0.149997	-272.53819	-272.532181	-272.531237	-272.567531	24.165
C         -0.07220        1.55310       -0.04620
C          0.01050        0.06420        0.00880
C          0.03400       -1.00970       -1.05500
C          1.29900       -1.63990       -0.48020
C          0.90810       -0.94770        0.85380
C         -0.39730       -1.66850        1.28730
C         -1.03390       -1.02780        0.05770
H          0.88130        2.00200       -0.34960
H         -0.83100        1.87110       -0.77010
H         -0.34430        1.98110        0.92610
H         -0.25690       -0.91300       -2.09410
H          1.39640       -2.73240       -0.47120
H          2.19770       -1.19710       -0.91950
H          1.66690       -0.67840        1.58650
H         -0.36660       -2.76220        1.36590
H         -0.80640       -1.24780        2.21050
H         -2.08550       -0.94400       -0.18880
