16
gdb 11048	3.56965	2.4781	2.06807	1.5868	67.08	-0.2167	-0.0165	0.2002	730.0894	0.130911	-346.57921	-346.572878	-346.571934	-346.609044	26.399
C          0.01380        1.51340       -0.04720
C         -0.01200        0.00620        0.03160
O          0.67350       -0.61400       -1.07720
C          0.43490       -1.96310       -0.65380
C          1.02290       -1.90560        0.78080
C          0.73950       -0.68120        1.20910
C         -1.11060       -1.93670       -0.52140
C         -1.38770       -0.71270       -0.08800
H          1.04380        1.88040       -0.03990
H         -0.47110        1.85780       -0.96470
H         -0.51420        1.94870        0.80700
H          0.86790       -2.68370       -1.34600
H          1.49210       -2.72910        1.29950
H          0.91750       -0.22730        2.17390
H         -1.76870       -2.77670       -0.69110
H         -2.33650       -0.27560        0.19000
