14
gdb 3149	4.2776	2.7435	1.95157	3.6082	58.89	-0.2467	0.0348	0.2815	669.2731	0.114095	-324.582904	-324.576296	-324.575352	-324.613702	23.844
O          0.03500        0.01840        0.01790
C          0.02470        1.22080        0.03110
N         -0.98450        2.16040        0.06600
C         -0.10160        3.33510        0.05240
C          1.06470        2.33050        0.01650
C          2.38000        2.33060        0.73860
C          2.34420        2.34300       -0.76720
H         -1.98840        2.07040        0.08170
H         -0.20760        3.96500       -0.83730
H         -0.16410        3.95270        0.95480
H          2.67500        3.24020        1.25110
H          2.66490        1.41110        1.23880
H          2.60400        1.43160       -1.29530
H          2.61510        3.26080       -1.27840
