18
gdb 13111	4.39066	1.08153	0.92877	1.1725	69.52	-0.2554	-0.0308	0.2246	1269.5129	0.151936	-384.942589	-384.93396	-384.933016	-384.97654	30.438
C         -0.01880        1.55030        0.12780
C         -0.09820        0.03510       -0.07340
C          0.89800       -0.47790       -1.12020
C          0.79260       -1.97920       -1.34200
O         -0.47080       -2.40090       -1.92570
C          0.14190       -3.00070       -3.08380
C          1.51840       -2.57170       -2.55970
O          2.64780       -2.64110       -2.93560
H          0.97910        1.85570        0.46180
H         -0.23330        2.08520       -0.80390
H         -0.73960        1.88840        0.87860
H          0.08730       -0.47570        0.88070
H         -1.11000       -0.24920       -0.38350
H          0.73410        0.03760       -2.07510
H          1.92820       -0.25590       -0.81220
H          0.99560       -2.52710       -0.40940
H         -0.01480       -4.08580       -3.14150
H         -0.17320       -2.53860       -4.02790
