20
gdb 18354	3.2627	2.08084	1.51964	0.379	80.87	-0.2207	0.0266	0.2472	909.8423	0.178989	-311.858089	-311.850835	-311.849891	-311.889209	29.196
C         -0.12440        1.55790       -0.10620
C         -0.01030        0.03210       -0.04260
C          0.95960       -0.51150       -1.15650
C          2.30030       -0.66180       -0.44270
C          2.08710       -0.73050        0.86620
C          2.62300       -0.38560        2.23630
C          1.23710        0.32750        2.46750
C          0.65570       -0.49760        1.25730
H          0.86100        2.03240       -0.04160
H         -0.57980        1.87110       -1.05150
H         -0.74120        1.94960        0.70930
H         -1.01130       -0.39390       -0.16830
H          0.60200       -1.46700       -1.56570
H          1.02230        0.18010       -2.00560
H          3.25360       -0.63430       -0.95800
H          2.73530       -1.25670        2.89100
H          3.53280        0.21690        2.29540
H          0.76430        0.17910        3.44130
H          1.30000        1.39650        2.25590
H          0.14910       -1.39490        1.63440
