14
gdb 19389	3.18697	2.30913	1.60688	2.975	62.56	-0.2428	-0.0291	0.2136	792.9135	0.10632	-382.492216	-382.485556	-382.484612	-382.523055	25.17
O          0.03860        0.02310       -0.09120
C         -0.00170        1.21400        0.00180
C         -1.11270        2.27770       -0.05160
O         -0.89180        3.11330        1.10620
C         -0.06930        3.33360       -0.03800
C          1.05500        2.31430        0.04100
C          2.36830        2.34620        0.76600
C          2.34800        2.24720       -0.73380
H         -2.10780        2.25500       -0.47870
H         -0.09070        4.30650       -0.51310
H          2.66880        3.28530        1.21810
H          2.63390        1.46070        1.33350
H          2.58970        1.29410       -1.19240
H          2.63090        3.11960       -1.31330
