17
gdb 13206	5.08398	1.24587	1.02649	4.9528	66.57	-0.2465	0.0217	0.2681	1119.7877	0.142183	-401.010644	-401.002265	-401.00132	-401.044717	28.931
O          0.13060        1.34900       -0.31800
C          0.08610       -0.03250       -0.12210
C         -1.37360       -0.48830       -0.02790
O         -2.27760        0.33400       -0.12480
N         -1.59310       -1.80050        0.16140
C         -0.72910       -2.97630        0.30680
C         -2.01560       -3.84080        0.45400
C         -2.85160       -2.53650        0.28940
H         -0.80590        1.61550       -0.33560
H          0.57830       -0.57040       -0.94920
H          0.61410       -0.32350        0.80100
H         -0.11560       -3.19110       -0.57540
H         -0.07840       -2.94570        1.18800
H         -2.15880       -4.57650       -0.33720
H         -2.12230       -4.33090        1.42160
H         -3.44650       -2.23650        1.15760
H         -3.48200       -2.48170       -0.60350
