19
gdb 15167	5.99684	0.86951	0.80025	2.761	76.37	-0.2433	0.0281	0.2714	1470.7972	0.163813	-365.040101	-365.031135	-365.030191	-365.074701	31.952
C          0.40830        0.31930        0.68900
C         -0.19940        0.27170       -0.71710
N          0.58610       -0.28420       -1.80600
C          1.74050       -0.73250       -1.60080
O          2.45350       -1.24940       -2.63480
C          3.75370       -1.67790       -2.31590
C          3.94470       -3.03840       -1.69930
C          4.29010       -2.79030       -3.15350
H          0.64850       -0.68090        1.06530
H          1.32210        0.92260        0.71850
H         -0.30850        0.77010        1.38200
H         -1.14150       -0.29190       -0.68390
H         -0.48670        1.28770       -1.01940
H          2.27320       -0.76400       -0.64310
H          4.42380       -0.87200       -2.02480
H          4.74780       -3.17270       -0.98320
H          3.04930       -3.61470       -1.49630
H          3.61570       -3.19610       -3.89830
H          5.33220       -2.75580       -3.44890
