16
gdb 15142	9.88792	0.71061	0.68867	3.5628	63.	-0.2592	-0.03	0.2292	1555.6512	0.12707	-420.839606	-420.830824	-420.829879	-420.874752	28.964
O         -0.10480        0.06480        0.38600
C          0.16020        0.98360       -0.34190
C          1.37480        1.87770       -0.15760
O          1.34170        2.87110       -1.14850
C          2.43070        3.76900       -1.08660
C          2.28770        4.76950       -2.19920
C          3.45780        5.45950       -2.75310
O          2.82280        4.40220       -3.47010
H         -0.46440        1.25750       -1.22010
H          1.35280        2.30290        0.86040
H          2.28370        1.25560       -0.22600
H          2.44180        4.29060       -0.11370
H          3.38780        3.23480       -1.19500
H          1.31710        5.26400       -2.24480
H          3.34270        6.45590       -3.17660
H          4.45160        5.23260       -2.36810
