14
gdb 20443	6.26151	1.46386	1.29543	4.2419	65.18	-0.2455	-0.0136	0.2319	916.9722	0.109139	-378.684136	-378.677667	-378.676723	-378.715425	23.773
C          0.30870        1.55380        0.14500
N          1.22550        0.45440       -0.16490
C         -0.20700        0.15720        0.05970
C         -0.55840       -0.62670        1.25320
C         -1.43440       -1.65220        1.45100
C         -1.30480       -1.93300        2.83580
N         -0.43410       -1.14990        3.42270
O          0.04140       -0.31380        2.41400
H          0.45280        1.99780        1.12480
H          0.01710        2.24570       -0.64080
H          1.42250        0.42670       -1.16220
H         -0.81450       -0.09370       -0.80540
H         -2.06690       -2.13290        0.72380
H         -1.81580       -2.68080        3.42590
