22
gdb 14513	3.25899	1.81821	1.47871	0.1384	81.89	-0.279	0.0886	0.3676	977.6416	0.201002	-313.018372	-313.010236	-313.009291	-313.050526	32.309
C         -1.43660       -0.87680        0.10890
C         -0.14020       -0.07280       -0.05970
C          0.71220       -0.50690       -1.27280
C          0.14710        0.19270       -2.51620
C          2.27790       -0.55980       -1.08310
C          2.07880       -1.80970       -0.17170
C          1.13980       -2.02320       -1.39420
C          2.35040       -1.56970       -2.26480
H         -2.05840       -0.84400       -0.79190
H         -1.22400       -1.92940        0.32310
H         -2.03650       -0.48420        0.93610
H         -0.39120        0.98780       -0.18710
H          0.42940       -0.12390        0.87140
H          0.32620        1.27260       -2.45480
H          0.56120       -0.15670       -3.46210
H         -0.93790        0.05250       -2.57140
H          2.94260        0.28830       -0.90100
H          2.93440       -2.48720       -0.10930
H          1.62770       -1.67580        0.81050
H          0.48620       -2.87870       -1.57830
H          2.16350       -1.20390       -3.27280
H          3.21070       -2.24410       -2.25730
