18
gdb 20842	5.17206	1.24572	1.08237	2.3917	75.24	-0.2277	0.0296	0.2574	1146.6982	0.154768	-344.025109	-344.0166	-344.015655	-344.059084	30.3
C          0.04600        1.41560       -0.47260
C         -0.09740        0.11690        0.33840
C         -1.43480       -0.54010        0.16880
N         -2.32060       -0.53960        1.16250
N         -3.39560       -1.18570        0.65860
C         -3.22770       -1.60310       -0.62320
C         -4.28360       -2.34320       -1.37770
C         -1.95690       -1.19600       -0.97500
H          1.03460        1.86180       -0.32450
H         -0.08280        1.23070       -1.54400
H         -0.70830        2.14770       -0.16850
H          0.69490       -0.58220        0.04280
H          0.04390        0.32680        1.40300
H         -4.20170       -1.31740        1.24570
H         -5.19930       -1.75040       -1.48650
H         -3.92530       -2.58720       -2.37980
H         -4.55660       -3.28280       -0.88340
H         -1.47390       -1.35570       -1.92630
