11
gdb 21713	8.62824	1.19416	1.05796	6.3169	59.02	-0.2513	-0.0575	0.1938	1009.0461	0.072218	-426.850628	-426.843696	-426.842752	-426.882227	23.917
N          0.02740        1.36300       -0.04800
C          0.06630        0.02540        0.07320
N          1.15550       -0.63760       -0.10590
C          1.08380       -2.00060       -0.08200
N          0.05590       -2.76240       -0.37780
O          0.51420       -4.03030       -0.22340
N          1.85470       -3.98010        0.16120
N          2.19450       -2.77670        0.23940
H          0.87570        1.86260       -0.26290
H         -0.79740        1.88300        0.18960
H         -0.88980       -0.44070        0.33050
