14
gdb 2761	3.7004	2.64369	1.85821	3.5437	57.27	-0.2787	0.0209	0.2996	695.493	0.114188	-324.57985	-324.573162	-324.572218	-324.610462	24.543
O          0.48140        0.96790       -0.66590
C          0.06030       -0.16520        0.01920
C         -0.02130       -0.18680        1.56770
C         -1.28960       -1.07200        1.45180
C         -1.46060       -0.60250       -0.03080
C         -2.32610        0.55500       -0.17310
N         -2.95610        1.52020       -0.27830
H         -0.09790        1.70460       -0.43380
H          0.66940       -0.99360       -0.35280
H          0.83810       -0.57770        2.11490
H         -0.26580        0.80780        1.95370
H         -1.06070       -2.13910        1.48560
H         -2.11780       -0.86240        2.12810
H         -1.73060       -1.35810       -0.77160
