18
gdb 7805	3.40882	1.79089	1.23247	3.8578	69.46	-0.2226	0.0337	0.2563	981.7452	0.156088	-381.153136	-381.14548	-381.144536	-381.185026	28.838
C         -0.02260        1.47050        0.02150
N         -0.02930        0.01790       -0.00190
C         -1.36030       -0.54050       -0.17520
C         -1.24210       -2.03150       -0.46760
N         -0.42100       -2.67260        0.54700
C          0.55460       -2.06120        1.27870
O          1.30420       -2.67450        2.01500
C          0.61110       -0.53860        1.18310
H          1.00740        1.83190        0.10190
H         -0.44820        1.85930       -0.90880
H         -0.59710        1.89420        0.86760
H         -2.00050       -0.38090        0.71580
H         -1.84840       -0.04840       -1.02210
H         -2.23660       -2.49120       -0.46780
H         -0.80670       -2.16810       -1.46730
H         -0.40420       -3.68120        0.59690
H          1.66770       -0.25860        1.20300
H          0.16170       -0.15230        2.12120
