18
gdb 18837	3.84875	2.13779	1.78908	1.3733	69.67	-0.2478	0.0757	0.3236	791.6082	0.156398	-347.780774	-347.774314	-347.773369	-347.81101	26.671
O         -0.03820        1.44030       -0.07250
C          0.01700        0.02620        0.01510
C          0.64860       -0.52390        1.32860
C         -0.23510       -1.71510        1.68230
C         -1.71360       -1.47440        1.94700
C         -2.16330       -0.14840        1.33000
C         -1.40150       -0.54940        0.02450
C         -1.24380       -1.98410        0.59380
H          0.86210        1.77800       -0.04830
H          0.56030       -0.38890       -0.84970
H          1.69060       -0.82720        1.18380
H          0.63600        0.25590        2.09860
H          0.19420       -2.56310        2.20460
H         -2.22820       -2.02040        2.72970
H         -3.24370       -0.13350        1.16730
H         -1.86230        0.78690        1.81140
H         -1.94010       -0.40870       -0.91190
H         -1.40900       -2.92980        0.09540
