13
gdb 5466	3.62433	1.95162	1.26854	2.0927	71.97	-0.1912	0.0036	0.1948	885.1746	0.095669	-361.467209	-361.459902	-361.458957	-361.498403	27.819
O          0.09580        1.35520        0.09720
C          0.05780        0.00270        0.04640
C          0.02790       -0.78890       -1.09950
N         -0.00590       -2.10780       -0.66080
C          0.00280       -2.14130        0.69860
C          0.04190       -0.84550        1.17590
C          0.02970       -0.39000       -2.44230
C          0.03290       -0.00100       -3.58640
H          0.09890        1.68910       -0.80830
H         -0.03250       -2.90400       -1.27230
H         -0.01950       -3.07840        1.23120
H          0.05760       -0.53680        2.20850
H          0.03560        0.33340       -4.59380
