20
gdb 16666	2.99468	2.09413	1.49193	1.8343	73.36	-0.2535	0.0777	0.3311	920.1402	0.177974	-349.003533	-348.995769	-348.994825	-349.035515	30.376
C          0.11550        1.57970       -0.11780
C          0.07480        0.05610       -0.00610
C          0.64510       -0.67920       -1.25400
C          1.21550       -1.98050       -0.71860
O          2.47630       -1.80020       -0.06030
C          1.29660       -1.91580        0.74780
C          0.77640       -0.57150        1.25330
C          1.89610        0.26300        1.88940
H          1.14060        1.95070       -0.21710
H         -0.44240        1.91390       -0.99930
H         -0.33340        2.06190        0.75720
H         -0.97940       -0.23990        0.06690
H         -0.13310       -0.85290       -2.00410
H          1.44210       -0.10310       -1.73830
H          1.11230       -2.91290       -1.26900
H          1.26450       -2.79680        1.38600
H          0.01490       -0.75860        2.02010
H          2.70680        0.43660        1.17800
H          1.52460        1.22950        2.24090
H          2.31980       -0.26310        2.75150
