16
gdb 6873	2.83228	1.69134	1.45787	2.4381	66.41	-0.2415	0.0275	0.269	925.8136	0.129045	-379.915262	-379.906433	-379.905488	-379.94816	32.211
C         -0.08580        1.58700        0.06860
C         -0.02270        0.08140       -0.03360
O         -1.14010       -0.58400        0.47810
C          0.57430       -0.61090       -1.20160
N          1.05450        0.09270       -2.34710
C          1.31880       -0.66570        0.17330
C          2.53530        0.06510        0.31600
N          3.51160        0.68600        0.38620
H          0.82860        2.07010       -0.28170
H         -0.93160        1.96300       -0.51380
H         -0.22430        1.88710        1.11370
H         -1.23460       -0.34080        1.40690
H          0.09350       -1.55160       -1.44940
H          1.52940        0.95230       -2.09250
H          1.73140       -0.47400       -2.84880
H          1.25390       -1.59870        0.72180
