15
gdb 4595	5.5213	1.51827	1.19966	4.2971	72.37	-0.2101	-0.0355	0.1746	965.069	0.12106	-362.742317	-362.735364	-362.734419	-362.773408	26.359
C         -0.01920        1.55620        0.01510
C          0.00110        0.05150       -0.00860
C         -0.04080       -0.65840       -1.16980
N         -0.02100       -2.02200       -1.16910
C          0.04220       -2.84280       -0.02770
O          0.05440       -4.05810       -0.14160
C          0.08600       -2.07330        1.20270
C          0.06620       -0.71320        1.20010
H          0.88030        1.96380        0.49130
H         -0.07420        1.96850       -0.99620
H         -0.87960        1.93860        0.57680
H         -0.09140       -0.18710       -2.14490
H         -0.05290       -2.53010       -2.04200
H          0.13520       -2.64660        2.12040
H          0.10070       -0.17790        2.14600
