16
gdb 2929	6.13475	1.92833	1.61098	1.8394	60.53	-0.2456	0.026	0.2716	790.875	0.138058	-325.799293	-325.792384	-325.79144	-325.83062	24.699
C          0.03450        1.53430       -0.04440
C          0.10440        0.00630        0.00280
C          0.65510       -0.54080        1.31390
C          0.81790       -2.08510        1.36100
N          2.26420       -2.32250        1.51590
C          2.79100       -1.17300        1.58260
O          2.02130       -0.06250        1.50970
H          1.02630        1.97140        0.09850
H         -0.35630        1.88030       -1.00570
H         -0.62040        1.92460        0.74260
H         -0.89550       -0.42370       -0.14090
H          0.72710       -0.37240       -0.81770
H          0.07130       -0.15860        2.15840
H          0.27690       -2.54130        2.19630
H          0.45920       -2.56120        0.44100
H          3.85090       -0.97440        1.69990
