15
gdb 10108	2.68904	1.58341	1.11647	3.4987	63.22	-0.2586	0.0072	0.2658	1039.009	0.118987	-396.00462	-395.995833	-395.994889	-396.03864	30.059
N          0.20650        1.47820        0.29330
C          0.07790        0.04590        0.07500
C          0.76060       -0.72610        1.23140
N          0.32300       -0.31320        2.55150
C          1.06360        0.57200        3.27960
O          2.16560        0.96850        2.96880
C          0.57400       -2.17240        1.05070
N          0.39520       -3.30230        0.88990
H          1.18200        1.76000        0.28800
H         -0.26170        1.98970       -0.44650
H         -0.98830       -0.20960        0.05550
H          0.51280       -0.33500       -0.86410
H          1.83450       -0.50730        1.20900
H         -0.63340       -0.48460        2.82050
H          0.54870        0.87230        4.21070
