17
gdb 9933	3.04041	1.51514	1.42484	4.7865	69.57	-0.2718	0.0326	0.3044	975.4018	0.140298	-363.866392	-363.857327	-363.856383	-363.899613	32.482
C         -0.06870        1.54530       -0.02930
C          0.06100        0.03930        0.01360
C          1.38870       -0.64900       -0.17180
O          2.55980        0.10160       -0.25520
C          0.73120       -0.67250        1.20330
C          1.34350        0.11170        2.35500
C          0.13350       -1.92690        1.58860
N         -0.35120       -2.93130        1.89820
H          0.86740        2.04230        0.23210
H         -0.34780        1.86830       -1.03810
H         -0.84670        1.89640        0.65540
H         -0.78960       -0.49830       -0.39500
H          1.40520       -1.58940       -0.72020
H          2.61020        0.48350       -1.13820
H          1.93770        0.94440        1.98110
H          0.56550        0.49560        3.02110
H          2.00330       -0.53430        2.94050
