20
gdb 7557	3.48851	1.23964	1.07451	1.8888	72.65	-0.24	0.0811	0.3211	1197.4467	0.174753	-386.11518	-386.105727	-386.104783	-386.149194	34.418
C          0.13330        1.33770        0.10310
O         -0.00140       -0.05540        0.25540
C         -1.28330       -0.53840       -0.11670
C         -1.20830       -2.04260       -0.06550
O         -0.20400       -2.54940       -0.90290
C         -1.48120       -2.77780        1.22920
C         -2.42310       -2.91290        0.04490
C         -3.84120       -2.38630        0.08700
H          1.15210        1.60290        0.39630
H         -0.03220        1.65250       -0.93910
H         -0.57410        1.88730        0.74360
H         -2.05550       -0.14410        0.56020
H         -1.52420       -0.20660       -1.14030
H          0.59480       -2.05600       -0.67690
H         -0.83540       -3.61570        1.46470
H         -1.81910       -2.20200        2.08550
H         -2.30660       -3.84030       -0.50990
H         -3.92350       -1.47520        0.68720
H         -4.21690       -2.16040       -0.91730
H         -4.51250       -3.12850        0.53280
