18
gdb 1786	4.95259	1.72555	1.54319	1.7477	64.29	-0.2418	0.0631	0.305	867.5917	0.158678	-326.952797	-326.944295	-326.943351	-326.985399	30.662
C         -0.02680        1.44340       -0.20690
C          0.02020       -0.03370        0.10440
N          1.32460       -0.71030        0.00070
C          0.65800       -0.63590        1.31360
C          1.36770        0.20090        2.35900
C          0.02940       -1.91330        1.84580
O          0.98330       -2.89740        2.22400
H          0.86880        1.95760        0.14690
H         -0.09090        1.60000       -1.28910
H         -0.90370        1.91300        0.25240
H         -0.84330       -0.58290       -0.27310
H          1.22810       -1.64520       -0.38910
H          1.85430        1.06880        1.91290
H          0.66930        0.54810        3.12920
H          2.15400       -0.38320        2.85260
H         -0.64810       -1.67610        2.68210
H         -0.57300       -2.38340        1.06070
H          1.46880       -2.56760        2.98610
