16
gdb 17854	5.19619	1.63054	1.53385	1.4221	64.31	-0.2155	0.0578	0.2734	858.9989	0.130705	-383.66041	-383.653681	-383.652736	-383.691569	25.465
C          0.05160        1.34490       -0.23860
C          1.52160        1.51470        0.20740
C          1.32870        0.11780        0.78160
O         -0.00450       -0.00510        0.29170
C          2.18210       -1.12220        0.82590
C          3.56040       -0.74960        1.35260
O          2.98790       -0.05560        2.49840
C          1.67340       -0.46160        2.10920
H         -0.67060        2.00100        0.25970
H         -0.13040        1.35720       -1.31810
H          2.24470        1.58830       -0.60750
H          1.71700        2.29700        0.94160
H          1.89020       -2.04070        0.33460
H          4.15570       -1.60800        1.68430
H          4.18060       -0.08830        0.73500
H          0.96530       -0.76470        2.87240
