16
gdb 21236	3.28627	1.89944	1.22226	1.551	68.07	-0.2013	0.0257	0.227	969.0459	0.131281	-379.932583	-379.924435	-379.923491	-379.965917	28.561
C          0.00570        1.42740       -0.03760
O          0.03150        0.01340       -0.02510
C         -1.18570       -0.59120        0.00560
C         -1.35290       -1.96610        0.01740
C         -0.34990       -3.06870        0.00260
N         -2.70280       -2.14730        0.04870
N         -3.41140       -1.00740        0.05780
C         -2.48900       -0.04430        0.03150
H          1.04520        1.75890       -0.06330
H         -0.51860        1.81210       -0.92300
H         -0.47950        1.82860        0.86260
H         -0.40170       -3.68800        0.90610
H         -0.47730       -3.73160       -0.86140
H          0.65240       -2.63850       -0.05040
H         -3.19530       -3.02430        0.06420
H         -2.79360        0.99050        0.03190
