19
gdb 18089	4.99915	1.2261	1.19435	2.946	71.92	-0.244	0.0861	0.33	1080.042	0.166416	-365.007154	-364.999464	-364.99852	-365.039617	29.355
O          0.17490        1.24900       -0.36600
C          0.02110       -0.08430        0.07080
C         -1.45170       -0.42590        0.30020
N         -2.17340       -0.14480       -0.93880
C         -2.52810       -1.15370       -1.91890
C         -2.97180       -2.48390       -1.28160
C         -4.04790       -1.70500       -0.46000
C         -3.58010       -0.40010       -1.13470
H         -0.53200        1.37800       -1.01330
H          0.44780       -0.79810       -0.65530
H          0.58180       -0.19360        1.00550
H         -1.54720       -1.46260        0.65310
H         -1.85890        0.23430        1.07420
H         -2.18930       -1.02020       -2.94050
H         -3.42430       -3.15360       -2.01580
H         -2.21250       -3.04350       -0.72720
H         -5.06480       -1.98090       -0.74590
H         -3.97210       -1.73650        0.63070
H         -4.21690        0.42610       -1.43300
