14
gdb 3568	5.4178	3.0125	2.81987	0.4225	55.58	-0.2328	0.05	0.2828	550.4755	0.115246	-324.485746	-324.480631	-324.479687	-324.514313	20.555
C          0.09460        1.47500        0.03090
C          1.32110        0.66730       -0.04250
C          1.65860        0.04000        1.32100
O          1.31610        0.83130        2.48460
C          0.02650        0.16750        2.59890
C          0.27690       -0.61310        1.30100
N         -0.06210        0.00780       -0.04640
H         -0.13190        2.01820        0.94180
H         -0.23560        1.96100       -0.88180
H          1.96410        0.63410       -0.91660
H          2.61340       -0.47980        1.41690
H         -0.01190       -0.46910        3.49180
H         -0.81370        0.87060        2.62230
H          0.09120       -1.68510        1.28220
