15
gdb 7892	3.53736	1.86003	1.2993	3.7362	63.46	-0.2335	0.0052	0.2387	914.5493	0.12035	-396.0454	-396.037819	-396.036875	-396.077048	28.408
C         -0.06700        1.55000        0.00160
C          0.05790        0.02510       -0.03790
N          0.85480       -0.46180       -1.16840
C          1.80420       -1.16000       -0.66790
N          2.83810       -1.73410       -1.37200
N          1.78920       -1.29000        0.72470
C          0.74040       -0.52480        1.22870
O          0.47700       -0.34940        2.39180
H          0.92120        2.01790        0.03790
H         -0.58100        1.90560       -0.89450
H         -0.63060        1.85520        0.88740
H         -0.94990       -0.40990       -0.09090
H          2.66950       -1.71950       -2.36860
H          3.14400       -2.63860       -1.04170
H          2.53170       -1.65720        1.29850
