14
gdb 1289	6.16306	1.41514	1.23322	2.9228	50.55	-0.271	0.0498	0.3209	931.339	0.11291	-398.888473	-398.880552	-398.879608	-398.921543	27.28
N         -0.21770        1.26670       -0.16790
C          0.01550       -0.07610       -0.06410
O          1.10150       -0.60280       -0.06640
O         -1.16570       -0.74530        0.01000
C         -1.05750       -2.17990        0.06210
C         -2.47800       -2.71200        0.01780
O         -3.13990       -2.36820       -1.18340
H          0.57720        1.86440       -0.01950
H         -1.12540        1.62290        0.07890
H         -0.47620       -2.52950       -0.79540
H         -0.54150       -2.47980        0.98030
H         -2.45040       -3.80540        0.06520
H         -3.02960       -2.35250        0.90120
H         -3.05930       -1.41250       -1.27550
