17
gdb 18562	3.77568	1.96331	1.57449	2.4646	67.5	-0.2289	-0.0251	0.2038	841.1656	0.143975	-363.866522	-363.859817	-363.858873	-363.897571	26.027
O          0.11850        0.05500       -0.73700
C          0.03350        1.13270       -0.22810
C         -1.08890        1.94120        0.43740
N         -0.13290        3.07270        0.61990
C          0.20690        3.39330        2.01390
C          1.21430        2.31920        2.47880
C          2.03280        2.04310        1.20330
C          1.01750        2.27610        0.06050
H         -1.94590        2.18270       -0.20080
H         -1.46290        1.48280        1.36430
H          0.67340        4.38580        2.04400
H         -0.69870        3.44060        2.62520
H          1.83290        2.64880        3.31720
H          0.68740        1.41280        2.79830
H          2.85680        2.75770        1.11060
H          2.46150        1.03840        1.16820
H          1.47910        2.70950       -0.83240
