18
gdb 6131	2.84704	1.82654	1.59687	3.4951	63.47	-0.2443	0.0595	0.3037	896.1389	0.15143	-422.062015	-422.053163	-422.052219	-422.094503	33.682
C          0.52020        1.37800       -0.07980
C         -0.01510       -0.04600       -0.02800
O         -1.42870       -0.07340       -0.06670
C          0.71840       -1.05030       -0.98190
C          1.55590       -1.55440        0.22110
O          2.78590       -0.86220        0.40190
C          0.52180       -0.89100        1.17120
O          1.00440       -0.26590        2.32260
H          1.61210        1.39040       -0.04690
H          0.20860        1.86850       -1.01120
H          0.13670        1.95410        0.76670
H         -1.72700        0.54690       -0.74030
H          0.02680       -1.81240       -1.34910
H          1.28230       -0.63030       -1.81980
H          1.70360       -2.63630        0.31500
H          3.39640       -1.12660       -0.29240
H         -0.25850       -1.60020        1.46310
H          1.91150        0.00070        2.12570
