16
gdb 1549	5.65588	1.37448	1.1651	3.797	62.02	-0.2737	0.036	0.3096	1004.2344	0.135337	-325.785476	-325.777074	-325.77613	-325.818433	28.484
C         -0.02610        1.37860        0.02070
O          0.00590       -0.03090       -0.01780
C          0.63930       -0.53500       -1.16730
C          0.57100       -2.07070       -1.09200
C         -0.87830       -2.59120       -1.10110
C          1.35190       -2.65020       -2.18780
N          1.96100       -3.09840       -3.06180
H          0.98740        1.80800        0.02010
H         -0.57840        1.79590       -0.83510
H         -0.53260        1.66620        0.94460
H          0.13830       -0.18260       -2.08440
H          1.68920       -0.20550       -1.21630
H          1.05030       -2.36780       -0.15110
H         -1.37240       -2.34030       -2.04430
H         -0.90400       -3.67640       -0.97900
H         -1.42830       -2.12500       -0.28230
