18
gdb 10191	2.81078	1.31378	1.0325	2.3703	71.07	-0.2542	0.0344	0.2886	1196.2577	0.150451	-384.888548	-384.878875	-384.87793	-384.923797	33.919
C         -0.06420        1.48220       -0.16380
C          0.00080       -0.03260       -0.07510
O          0.64680       -0.51630       -1.24620
C          0.75110       -1.94230       -1.32000
C         -0.49350       -2.48820       -2.04810
O         -0.66880       -1.85690       -3.29260
C          1.99090       -2.27910       -2.01660
C          3.00440       -2.59200       -2.57950
H          0.94070        1.90290       -0.25610
H         -0.64840        1.79400       -1.03430
H         -0.53490        1.89380        0.73390
H          0.56940       -0.34530        0.81460
H         -1.01120       -0.45540        0.01830
H          0.78650       -2.36650       -0.30440
H         -0.38060       -3.56180       -2.22700
H         -1.36810       -2.34590       -1.39110
H         -0.48990       -0.92040       -3.13760
H          3.90050       -2.86020       -3.08250
