15
gdb 14089	3.54706	1.75618	1.43911	2.6924	63.5	-0.242	-0.0289	0.2131	878.0164	0.118251	-399.768051	-399.760734	-399.75979	-399.799711	27.483
O          0.02020        1.28560       -0.02530
C          0.07550       -0.08920        0.10710
C         -0.46910       -0.74260        1.34440
C         -1.28450       -0.78490        0.07830
N         -2.45110        0.05460       -0.25920
C         -2.93810       -0.98040       -1.23560
C         -1.72540       -1.86430       -0.85660
O         -1.31960       -2.94180       -1.18060
H         -0.88420        1.48330       -0.32990
H          0.90270       -0.56540       -0.41300
H         -0.03710       -1.68350        1.67020
H         -0.82510       -0.08880        2.13460
H         -3.09110        0.15180        0.52310
H         -3.90860       -1.42490       -0.99410
H         -2.95100       -0.62420       -2.26960
