15
gdb 1044	6.90242	1.93564	1.66111	1.4034	63.67	-0.1857	0.0529	0.2386	766.8327	0.127397	-304.721921	-304.71512	-304.714175	-304.752964	25.007
C          0.27470        1.07130        0.53580
N         -0.11680        0.12990       -0.52170
C         -1.32770       -0.55650       -0.30460
C         -2.63140       -0.31360       -0.68380
C         -3.42650       -1.38960       -0.19370
C         -2.59120       -2.24880        0.47920
N         -1.31880       -1.73500        0.40400
H          1.23030        1.53270        0.26920
H         -0.46550        1.86580        0.71690
H          0.41560        0.52610        1.47360
H         -0.15030        0.60690       -1.41410
H         -2.97300        0.54480       -1.24260
H         -4.49220       -1.51100       -0.31380
H         -2.78900       -3.17110        1.00060
H         -0.47740       -2.17800        0.73030
