19
gdb 1996	5.69889	1.48004	1.27191	1.6994	67.79	-0.2627	0.0884	0.3512	987.1741	0.17019	-310.905786	-310.897508	-310.896564	-310.93844	29.939
C          0.10550        1.56740        0.10260
C          0.03080        0.03700        0.00740
C          0.69140       -0.46550       -1.28300
C          0.65390       -0.65310        1.23680
C         -0.07410       -0.38610        2.53210
C          0.60460       -0.39240        3.83390
O          0.21820        0.83710        3.21850
H          1.14900        1.90380        0.12270
H         -0.37710        2.03370       -0.76290
H         -0.37600        1.94350        1.00810
H         -1.03100       -0.24980       -0.02650
H          1.76050       -0.22110       -1.29540
H          0.59750       -1.55190       -1.38710
H          0.23700       -0.00250       -2.16500
H          0.66250       -1.73940        1.07140
H          1.70000       -0.34020        1.34870
H         -1.13840       -0.63360        2.52440
H          0.05420       -0.65930        4.73530
H          1.67780       -0.57580        3.87640
