17
gdb 19417	4.10094	2.0019	1.62767	1.4807	74.22	-0.2226	0.0149	0.2376	828.51	0.144224	-326.69004	-326.683606	-326.682662	-326.720275	26.411
C         -0.00300        1.52190       -0.02090
C          1.30040        0.77370       -0.00310
C         -0.00950        0.00930       -0.00100
C         -0.46540       -0.77370        1.18330
C         -1.02830       -1.93350        0.82690
C         -1.07300       -2.05210       -0.66110
N         -1.91020       -0.98860       -1.29760
C         -0.44320       -0.81090       -1.19170
H         -0.31230        2.03840        0.88150
H         -0.31120        2.00850       -0.93980
H          1.89010        0.74640       -0.91440
H          1.88870        0.77620        0.90830
H         -0.36210       -0.40200        2.19700
H         -1.43820       -2.67510        1.50090
H         -0.99370       -3.01400       -1.15640
H         -2.11930       -1.28000       -2.25210
H          0.15190       -0.80030       -2.09950
