15
gdb 19683	4.59641	1.94624	1.73548	3.4531	64.25	-0.2341	-0.0285	0.2055	768.5584	0.119323	-362.580754	-362.574486	-362.573542	-362.611272	24.169
O         -0.21430       -0.05260        0.04140
C         -0.06310        1.14030       -0.02490
C          1.23830        1.89180        0.10260
C          1.50750        2.80400        1.30010
C          2.19540        1.91220        2.35560
C          2.27080        0.52400        1.74420
N          2.53710        1.17180        0.39030
C          2.95640        2.43780        1.17820
H         -0.92970        1.82000       -0.21170
H          1.36370        2.45970       -0.83010
H          1.07270        3.76260        1.55380
H          2.25590        2.22940        3.38940
H          3.17620       -0.00770        2.04690
H          1.41270       -0.14740        1.77170
H          3.86700        2.99990        1.03020
