20
gdb 10957	4.96448	1.23318	1.1188	1.1211	74.94	-0.2454	0.0828	0.3282	1130.7101	0.176495	-348.976321	-348.967932	-348.966987	-349.008835	32.253
C         -0.00300        1.53360        0.07910
C         -0.13700        0.01340       -0.05920
C          0.69210       -0.55510       -1.20720
C          2.26180       -0.55650       -1.09490
C          2.24550       -2.07150       -1.33700
O          3.13110       -2.73400       -2.17070
C          1.44550       -2.77480       -0.28000
C          0.72870       -2.07750       -1.42200
H          1.03580        1.82600        0.26750
H         -0.32770        2.04410       -0.83460
H         -0.61020        1.91450        0.90630
H          0.15320       -0.46660        0.88370
H         -1.19100       -0.24890       -0.22040
H          0.39890       -0.05760       -2.13830
H          2.74000       -0.01160       -1.91150
H          2.69180       -0.22250       -0.14340
H          3.87790       -3.03380       -1.64090
H          1.45360       -3.85680       -0.36790
H          1.39220       -2.40410        0.74110
H          0.08310       -2.63310       -2.09160
