11
gdb 21783	5.74878	1.64107	1.27664	1.7512	59.62	-0.2547	-0.1161	0.1386	847.3336	0.073242	-393.590441	-393.58431	-393.583365	-393.621062	21.51
O         -0.85310        1.10020        0.25440
C          0.25520        0.81040       -0.11840
C          1.41130        1.75940       -0.06200
C          1.28090        3.06120        0.43240
N          2.31710        3.89370        0.47650
N          3.49610        3.45770        0.03510
C          3.57680        2.20910       -0.42840
N          2.58420        1.31770       -0.50400
H          0.51780       -0.18270       -0.53480
H          0.32930        3.43310        0.79580
H          4.55740        1.89900       -0.77680
