15
gdb 7921	3.62869	1.8254	1.26621	2.5294	62.84	-0.277	-0.0143	0.2627	925.4354	0.119363	-399.865456	-399.85814	-399.857196	-399.897399	26.812
C         -0.27000        1.52670        0.01940
C          0.12380        0.05140       -0.03440
C          0.99980       -0.39440       -1.21400
C          1.93290       -1.41480       -0.60640
N          2.63670       -2.25610       -1.21720
O          1.91660       -1.27520        0.77650
C          0.94150       -0.38010        1.17960
O          0.81690       -0.06280        2.32110
H          0.61400        2.17010       -0.03470
H         -0.92870        1.78120       -0.81530
H         -0.79000        1.74530        0.95490
H         -0.78610       -0.56330       -0.00110
H          0.45520       -0.81960       -2.05720
H          1.59530        0.44360       -1.59500
H          3.18910       -2.81730       -0.56710
