14
gdb 16600	3.38476	2.36618	1.54159	3.7801	63.17	-0.2465	-0.078	0.1684	790.4178	0.108502	-378.718965	-378.712533	-378.711589	-378.74968	24.532
N         -0.07460        1.22450       -0.36980
C         -0.02350        0.00140       -0.05150
N         -1.15810       -0.80620        0.20100
C         -1.38970       -1.84630       -0.83030
C         -0.67860       -2.20220        0.41870
C          0.83930       -2.25950        0.41760
C          1.25600       -0.82240        0.10840
O          2.36610       -0.37850       -0.01630
H          0.88910        1.56180       -0.47320
H         -2.43230       -2.11600       -0.96380
H         -0.81490       -1.77760       -1.75160
H         -1.21340       -2.74150        1.19350
H          1.23940       -2.54780        1.39510
H          1.26340       -2.94720       -0.32020
