15
gdb 2432	5.48083	2.78107	2.42181	1.8699	59.89	-0.2245	0.0819	0.3064	610.8271	0.125444	-308.450468	-308.444698	-308.443754	-308.479605	22.938
C         -0.06220        1.48820        0.00800
C          0.02790       -0.00680       -0.03120
C          0.91570       -0.88540       -0.91870
C          0.06020       -2.06390       -0.39170
O          0.42180       -2.14550        1.01770
C         -0.28530       -0.91630        1.17510
C         -1.09770       -1.04640       -0.06890
H          0.88050        1.93160        0.34900
H         -0.28840        1.90400       -0.98060
H         -0.85020        1.82070        0.69310
H          0.73050       -0.69000       -1.97890
H          1.99110       -0.93730       -0.71760
H         -0.00000       -3.03240       -0.88300
H         -0.51900       -0.56250        2.17110
H         -2.15510       -0.99400       -0.28900
