21
gdb 10346	2.04732	1.93622	1.14717	3.5669	76.18	-0.2303	0.0369	0.2672	1139.0813	0.186945	-366.304261	-366.294191	-366.293246	-366.339473	35.596
C         -0.04470        1.49680       -0.11820
C         -0.10990       -0.03150       -0.18160
N         -1.46130       -0.55470        0.03020
C         -2.28870       -0.78210       -1.14840
C         -2.02530       -2.12630       -1.83780
C         -1.86550       -0.76930        1.32310
C         -3.27040       -1.31700        1.54380
O         -1.13110       -0.52770        2.26940
H          0.97580        1.84320       -0.31170
H         -0.70360        1.95880       -0.86120
H         -0.34290        1.84130        0.87480
H          0.24110       -0.39050       -1.15490
H          0.53460       -0.45870        0.58880
H         -3.34210       -0.70700       -0.87130
H         -2.10380        0.03670       -1.85450
H         -0.97810       -2.21770       -2.14130
H         -2.25400       -2.96190       -1.16940
H         -2.64600       -2.22380       -2.73440
H         -3.46820       -2.22120        0.96100
H         -3.36400       -1.54460        2.60520
H         -4.03200       -0.57590        1.27810
