14
gdb 13931	3.8494	1.76958	1.48631	3.2823	57.02	-0.2666	-0.0071	0.2595	841.3535	0.107643	-419.670101	-419.66327	-419.662326	-419.70172	24.257
O         -0.18100        0.08560       -0.24470
C         -0.07550        1.24030        0.01380
O         -1.03460        2.09450        0.49910
C         -0.09480        3.22030        0.51360
C          1.01340        2.30970       -0.02820
C          2.38940        2.10220        0.63450
O          3.08030        2.41040       -0.58970
C          1.84060        2.58500       -1.29930
H         -0.43470        4.01730       -0.15180
H          0.04240        3.59730        1.52980
H          2.62870        2.80850        1.43920
H          2.58320        1.07800        0.97420
H          1.71140        1.84500       -2.09780
H          1.73410        3.59550       -1.71300
