14
gdb 6428	3.65538	1.52191	1.308	2.9844	63.98	-0.246	-0.0274	0.2185	935.575	0.103479	-382.505928	-382.497952	-382.497008	-382.538673	29.729
O          0.12010        1.51830       -0.24690
C          0.01140        0.12730       -0.00990
C          0.18920       -0.31140        1.49610
C         -1.24410       -0.85990        1.45490
O         -1.89720       -1.52090        2.20670
C         -1.49600       -0.28710        0.05470
C          0.81990       -0.64940       -0.94120
C          1.51770       -1.26950       -1.69910
H          1.05310        1.72950       -0.36340
H          0.97560       -1.03370        1.72400
H          0.28500        0.56130        2.14960
H         -2.13740        0.59950        0.07130
H         -1.85670       -0.98550       -0.70200
H          2.12300       -1.82160       -2.37540
