18
gdb 7796	3.12342	1.84439	1.23716	3.8604	68.69	-0.215	0.0316	0.2466	983.907	0.156443	-381.160362	-381.15263	-381.151686	-381.192434	29.346
C         -0.04690        1.55700        0.00830
C          0.02900        0.03030       -0.01030
C          0.69780       -0.50770       -1.28280
N          0.98170       -1.93660       -1.22530
C          1.87160       -2.25230       -0.10970
C          1.58680       -1.54880        1.22100
O          2.09340       -1.91820        2.26450
N          0.77010       -0.45430        1.15280
H          0.95500        1.99480       -0.04420
H         -0.63300        1.92210       -0.84080
H         -0.52870        1.91760        0.92350
H         -0.99990       -0.36730        0.02160
H          0.05720       -0.29650       -2.14500
H          1.64730        0.02080       -1.44270
H          0.11100       -2.44870       -1.12030
H          1.86770       -3.32770        0.08220
H          2.90260       -1.99160       -0.38620
H          0.57560       -0.03240        2.05120
