16
gdb 18070	5.62701	1.13398	1.11039	3.2627	65.33	-0.2464	-0.0196	0.2268	1077.4892	0.129554	-383.696151	-383.688687	-383.687743	-383.729114	26.753
O         -0.61160        0.51730        0.43180
C          0.24030        0.90230       -0.32670
C          1.30740        1.92050        0.01330
C          1.35560        3.03410       -1.01720
C          2.50560        4.01720       -1.17800
C          3.83940        3.29450       -1.03590
O          3.43540        2.27700       -1.99440
C          2.21740        2.98380       -2.24520
H          0.29680        0.51720       -1.37130
H          1.12430        2.29850        1.02330
H          2.26860        1.39020        0.00390
H          0.40080        3.52330       -1.20300
H          2.36160        5.08890       -1.17260
H          4.68520        3.86890       -1.42840
H          4.10160        2.87160       -0.05900
H          1.87470        3.05050       -3.27140
