14
gdb 3683	7.11031	2.09045	1.6486	2.6378	59.28	-0.245	0.0178	0.2627	752.112	0.114656	-320.804155	-320.797088	-320.796143	-320.836094	24.286
C          0.00790        1.48400        0.03790
C          0.01240       -0.00500       -0.04670
N          0.00950       -0.73150       -1.15010
C          0.01670       -2.02110       -0.68970
C          0.01650       -3.20740       -1.59360
N          0.02380       -2.13060        0.62980
N          0.02080       -0.83000        1.02350
H          0.89810        1.86190        0.55210
H         -0.00730        1.89190       -0.97320
H         -0.87060        1.85540        0.57640
H          0.89410       -3.19620       -2.24770
H          0.02290       -4.12750       -1.00690
H         -0.86770       -3.20280       -2.23880
H          0.02470       -0.60620        2.00470
