15
gdb 2587	3.07515	2.73684	1.72062	1.6841	62.99	-0.261	0.0257	0.2867	765.8129	0.122628	-308.464824	-308.457202	-308.456258	-308.496363	27.773
C         -0.34320        1.44250       -0.06880
C          0.22240        0.02750        0.08800
C          0.84100       -0.50150       -1.19560
C          0.66700       -1.91710       -1.58300
O         -0.10810       -0.89950       -2.20720
C          1.99870        0.21300       -1.68640
C          2.96530        0.82280       -2.05900
H          0.44220        2.15020       -0.35000
H         -1.11320        1.46380       -0.84550
H         -0.79180        1.78610        0.86760
H          0.98430        0.00710        0.87640
H         -0.57240       -0.66460        0.38570
H          1.41360       -2.39370       -2.21550
H          0.12360       -2.58140       -0.91160
H          3.81750        1.35640       -2.40090
