18
gdb 9525	2.70786	1.78995	1.59691	2.0187	67.87	-0.246	-0.0284	0.2176	930.6508	0.151439	-384.952342	-384.943489	-384.942545	-384.98566	32.187
C         -0.36210        1.40720        0.09480
C         -0.05380       -0.08610       -0.03510
C          0.88540       -0.40950       -1.20680
O          2.10970        0.26650       -1.04540
C          0.93550       -1.94540       -1.53360
C         -0.09690       -1.74150       -2.68850
C          0.24800       -0.25200       -2.59880
O          0.31060        0.64850       -3.39040
H          0.56340        1.97570        0.21460
H         -0.87960        1.78770       -0.79190
H         -0.99720        1.59910        0.96440
H          0.43750       -0.45100        0.87570
H         -0.98070       -0.66250       -0.14260
H          2.22520        0.83660       -1.81570
H          1.92130       -2.22670       -1.90740
H          0.64050       -2.61460       -0.72400
H          0.09420       -2.21460       -3.65340
H         -1.12610       -1.95460       -2.38560
