18
gdb 9882	4.83351	1.0166	0.94129	2.9053	69.1	-0.2546	-0.0268	0.2278	1256.1392	0.150145	-384.924694	-384.915647	-384.914703	-384.95939	31.911
C          0.13620        1.62750        0.28340
C         -0.01650        0.13880        0.06320
C          1.11870       -0.67130       -0.51530
C          0.71250       -0.83170        0.93860
O         -1.31810       -0.28020       -0.26910
C         -1.75570        0.08250       -1.55790
C         -3.04100       -0.67470       -1.84420
O         -3.71710       -0.49500       -2.82170
H          1.14840        1.86310        0.62300
H         -0.04300        2.19660       -0.63530
H         -0.57070        1.97480        1.04410
H          0.86200       -1.48150       -1.18870
H          2.05250       -0.16950       -0.74490
H          1.36640       -0.43980        1.70980
H          0.18090       -1.73750        1.20540
H         -1.95370        1.16050       -1.65470
H         -1.01580       -0.18300       -2.33070
H         -3.29870       -1.42440       -1.06380
