17
gdb 6668	4.51959	0.9566	0.86379	3.361	65.94	-0.2448	-0.013	0.2318	1325.0541	0.139817	-401.049424	-401.039918	-401.038974	-401.085334	31.757
C         -0.16890        1.36760        0.41810
C          0.01680       -0.00290       -0.20580
O          1.04020       -0.31840       -0.77110
C         -1.15610       -0.96440       -0.08280
C         -0.81130       -2.37660       -0.56500
N         -1.96050       -3.27350       -0.55280
C         -2.49870       -3.74520        0.59910
O         -2.11770       -3.44390        1.71250
H          0.67870        2.00760        0.17060
H         -1.10130        1.82990        0.07630
H         -0.24510        1.26940        1.50730
H         -1.49800       -1.00200        0.95720
H         -1.99600       -0.55310       -0.66030
H         -0.41200       -2.34090       -1.57980
H         -0.02950       -2.79360        0.07630
H         -2.34340       -3.59380       -1.42690
H         -3.33780       -4.44550        0.41380
