15
gdb 3043	11.56642	1.13591	1.08002	4.3285	60.99	-0.255	0.0206	0.2756	1056.1942	0.125215	-341.794931	-341.787459	-341.786515	-341.828061	25.286
N          0.02500        1.13180        0.59900
C         -0.08250        0.00510        0.04220
O         -1.00340       -0.87770        0.47410
C         -0.96280       -2.19440       -0.07840
C         -2.35810       -2.74920       -0.13180
C         -2.55950       -4.20800        0.06210
N         -3.00670       -3.25260        1.08450
H          0.74320        1.68210        0.13300
H          0.50860       -0.36140       -0.81000
H         -0.52340       -2.16670       -1.08560
H         -0.32450       -2.83000        0.55210
H         -3.03100       -2.20690       -0.79230
H         -3.35530       -4.71910       -0.47140
H         -1.68420       -4.82240        0.26090
H         -2.35370       -3.23140        1.86460
