16
gdb 16080	3.2672	1.76751	1.4487	0.557	60.13	-0.2377	0.0552	0.2929	895.9269	0.129845	-420.814823	-420.807113	-420.806168	-420.846906	28.776
O          0.64180        0.32580       -0.68870
C         -0.21300        0.27740        0.43880
C         -1.47100       -0.50160        0.16890
O         -2.47930       -0.48300        1.19720
C         -2.75010       -1.90330        0.97420
C         -1.80220       -1.94270       -0.21290
C         -2.14790       -0.77860       -1.13270
O         -3.44960       -0.35580       -1.38440
H          0.22070        0.88180       -1.35220
H          0.36070       -0.19800        1.24130
H         -0.49520        1.28140        0.79420
H         -2.41630       -2.48760        1.83690
H         -3.81120       -2.09230        0.77820
H         -1.16280       -2.76560       -0.50310
H         -1.51680       -0.72750       -2.01490
H         -3.77010        0.02310       -0.55400
