15
gdb 19988	3.67221	1.71705	1.34603	1.6038	67.11	-0.2436	0.0123	0.2559	912.3116	0.117987	-362.569817	-362.562254	-362.561309	-362.60195	27.842
C          0.04500       -1.14480        0.46120
C          0.09930        0.03960        0.26480
C          0.11160        1.45240        0.00560
O          0.73390        2.31360        0.98480
C          1.34750        2.21500       -0.29550
C          2.71480        1.60640       -0.34590
C          3.74310        2.09760        0.60970
N          3.18930        0.74010        0.73250
H          0.01690       -2.19220        0.63630
H         -0.82480        1.85350       -0.38140
H          1.22040        3.09930       -0.92440
H          3.02420        1.30310       -1.34430
H          4.78520        2.14770        0.30800
H          3.43350        2.84800        1.33230
H          2.48990        0.73070        1.47280
