19
gdb 7372	3.70167	1.19222	0.95762	3.4957	68.91	-0.2381	0.0361	0.2742	1240.2973	0.163243	-402.236691	-402.226778	-402.225834	-402.272217	34.7
C          0.44320        1.00340        0.66730
C         -0.12060       -0.22650       -0.02400
O          0.82610       -0.67730       -0.97810
C          0.48860       -1.88800       -1.64160
C         -0.53840       -1.69420       -2.75870
C          1.77000       -2.53080       -2.20400
N          2.92190       -1.93170       -1.81750
O          1.71280       -3.51540       -2.91700
H          1.38030        0.76400        1.17860
H          0.64050        1.79600       -0.06010
H         -0.26760        1.38210        1.40760
H         -0.32240       -1.02590        0.70760
H         -1.07550        0.01620       -0.51290
H          0.09340       -2.60880       -0.90680
H         -0.19760       -0.91920       -3.45190
H         -0.64650       -2.63220       -3.30610
H         -1.51320       -1.40190       -2.35950
H          2.88260       -1.08550       -1.27590
H          3.79450       -2.28170       -2.17480
