15
gdb 11446	3.78773	1.57358	1.2526	5.2817	57.18	-0.2599	0.0475	0.3074	944.7529	0.120293	-436.980362	-436.972886	-436.971941	-437.012566	26.9
O         -0.09990        1.39770        0.17110
C          0.00740       -0.01130        0.05420
C         -1.41520       -0.54700       -0.10470
C         -1.50390       -2.08500       -0.03570
O         -1.85160       -2.37800        1.32070
C         -2.32790       -1.24490        1.93160
O         -2.73240       -1.22490        3.05900
N         -2.26150       -0.20640        1.02400
H          0.76020        1.75570        0.40830
H          0.60840       -0.30330       -0.82180
H          0.46720       -0.45960        0.94870
H         -1.83430       -0.16030       -1.03910
H         -2.28440       -2.47290       -0.69860
H         -0.55850       -2.58150       -0.27030
H         -2.23910        0.73210        1.39190
