18
gdb 13487	3.10704	1.70755	1.17643	0.9827	68.78	-0.2556	-0.0319	0.2237	1033.0148	0.151583	-384.944551	-384.935956	-384.935012	-384.977755	31.085
C         -0.05930        1.47630       -0.16520
C          0.00690       -0.04040        0.05010
C          0.84590       -0.42210        1.27740
C         -1.40200       -0.61840        0.18780
O         -2.25430       -0.39100       -0.96740
C         -2.47930       -1.79300       -1.21190
C         -1.56910       -2.13020       -0.02500
O         -1.14610       -3.12270        0.48500
H          0.94210        1.88630       -0.33080
H         -0.68050        1.72020       -1.03070
H         -0.48540        1.97690        0.71230
H          0.46070       -0.49550       -0.84090
H          0.86780       -1.50550        1.42580
H          1.87540       -0.06960        1.16220
H          0.43860        0.03510        2.18680
H         -1.87880       -0.25000        1.10920
H         -3.52920       -2.08880       -1.08880
H         -2.12190       -2.12340       -2.19530
