22
gdb 12732	2.60624	2.02151	1.66111	0.1664	81.38	-0.2547	0.0819	0.3366	951.9178	0.200286	-313.056242	-313.047865	-313.046921	-313.088666	32.776
C          0.10920        1.59780       -0.05540
C          0.07070        0.07950        0.04600
C          0.94620       -0.77770       -0.91800
C          1.37370       -1.68980        0.26820
C          2.76310       -1.36760        0.85720
C          2.13860       -0.19150        1.66540
C          0.70150       -0.66430        1.26100
C         -0.21200       -1.06240        2.40060
H          1.13330        1.98450       -0.01920
H         -0.33200        1.93520       -1.00020
H         -0.45400        2.06900        0.75840
H         -0.97270       -0.25080       -0.03500
H          0.40410       -1.27070       -1.72870
H          1.78430       -0.22770       -1.36050
H          1.06800       -2.73600        0.20350
H          3.13840       -2.16260        1.50790
H          3.55000       -1.11550        0.13930
H          2.33130       -0.22060        2.74110
H          2.41070        0.80440        1.30730
H         -0.53780       -0.18310        2.97130
H         -1.11110       -1.57070        2.03350
H          0.29120       -1.73830        3.10200
