17
gdb 2532	3.1473	2.06528	1.32316	4.476	65.13	-0.2442	0.0296	0.2738	926.5736	0.147817	-305.904676	-305.896168	-305.895224	-305.937607	29.577
C          0.18200        1.54430        0.03080
C          0.01590        0.02380       -0.04450
C         -1.45690       -0.43660        0.00550
N         -2.18680       -0.02170       -1.18810
C         -3.62700       -0.25310       -1.11970
C         -1.51000       -1.90630        0.12360
N         -1.54400       -3.05530        0.23940
H          1.24270        1.80620        0.08010
H         -0.22980        2.05520       -0.84580
H         -0.30370        1.95560        0.92260
H          0.46400       -0.36710       -0.96360
H          0.54210       -0.44280        0.79400
H         -1.90990       -0.04060        0.93680
H         -2.00800        0.96360       -1.34150
H         -4.11400        0.20880       -0.24300
H         -4.09580        0.14330       -2.02400
H         -3.82320       -1.32900       -1.08400
