15
gdb 14012	4.52403	1.28974	1.1876	2.5434	62.98	-0.2542	-0.0357	0.2185	1008.8807	0.117914	-399.748806	-399.741368	-399.740423	-399.781152	26.524
O         -0.31500        0.45020        0.77650
C          0.25110        0.83350       -0.21540
C          1.41540        1.76150       -0.20520
N          2.26950        1.70450       -1.42120
C          1.49320        2.89010       -1.18010
C          0.46500        3.49230       -2.13550
O          0.94750        4.82040       -1.82800
C          1.95870        4.32350       -0.92920
H         -0.05980        0.52080       -1.23730
H          1.87430        1.91530        0.76890
H          3.24750        1.83630       -1.17290
H          0.61310        3.22510       -3.18860
H         -0.59070        3.36880       -1.86720
H          1.83290        4.70490        0.09160
H          2.97560        4.55020       -1.27900
