15
gdb 10494	3.41689	1.4742	1.20613	4.0261	60.96	-0.2796	0.0215	0.3012	990.6013	0.117792	-399.785742	-399.777664	-399.77672	-399.818677	28.884
O          0.76280       -1.59730       -0.29970
C         -0.13960       -0.68360       -0.87530
C         -1.46390       -0.64870       -0.12170
C         -2.48480        0.38700       -0.58070
C         -1.97000        1.75720       -0.54380
N         -1.55880        2.83650       -0.52020
C         -1.93690       -1.85030        0.57370
O         -1.31800       -0.76840        1.29560
H          0.80670       -1.37580        0.63940
H          0.27530        0.33610       -0.90780
H         -0.31090       -1.00310       -1.90960
H         -2.80550        0.16320       -1.60550
H         -3.37030        0.32840        0.05940
H         -2.99970       -1.98240        0.76730
H         -1.34220       -2.75720        0.51140
