22
gdb 7578	2.97572	1.58284	1.48974	1.5543	77.37	-0.2386	0.0762	0.3147	1026.6282	0.198642	-350.202514	-350.193115	-350.192171	-350.236271	35.076
C         -1.61910       -0.28650        0.14760
C         -0.13000        0.06520        0.02260
C          0.08630        1.57780       -0.12140
C          0.71650       -0.53220        1.16300
C          0.35780       -0.02800        2.55540
C          0.94190       -2.06670        1.06250
C          2.41360       -1.70090        0.80110
O          2.13550       -0.29160        0.89620
H         -2.08330        0.22490        0.99740
H         -2.16080        0.02040       -0.75270
H         -1.77570       -1.36290        0.27760
H          0.25050       -0.40580       -0.89430
H         -0.35620        2.13250        0.71300
H          1.15340        1.81030       -0.16200
H         -0.38140        1.94470       -1.04070
H         -0.67190       -0.28870        2.82010
H          1.02460       -0.47590        3.29770
H          0.46690        1.05820        2.62070
H          0.75150       -2.62620        1.98020
H          0.42660       -2.55440        0.23270
H          3.12830       -2.02990        1.56590
H          2.80730       -1.97690       -0.18500
