15
gdb 9495	3.16756	1.67046	1.52221	2.1603	61.9	-0.2705	0.0021	0.2726	894.3719	0.11705	-399.787092	-399.778857	-399.777913	-399.819888	29.339
C         -0.33320        1.46510        0.09840
C          0.17220        0.04860       -0.05020
O          1.40730       -0.04490       -0.79620
C          2.04200       -0.82620        0.22490
C          0.83860       -0.63100        1.18980
O          1.03900        0.28720        2.23590
C          0.20030       -1.85810        1.67680
N         -0.28160       -2.82800        2.08100
H          0.40480        2.09400        0.59810
H         -0.53750        1.87450       -0.89550
H         -1.26210        1.48090        0.67650
H         -0.59430       -0.59770       -0.49660
H          2.22410       -1.86160       -0.08640
H          2.96950       -0.37080        0.58950
H          1.51330       -0.15300        2.95060
