16
gdb 19737	4.02424	2.51946	2.27899	1.8542	62.69	-0.2272	0.0933	0.3205	676.4698	0.13402	-383.716105	-383.710827	-383.709883	-383.745166	22.479
C         -0.03260        1.57690        0.04650
C          1.49850        1.37540        0.00430
O          1.76130        0.74880        1.27160
C          0.88540       -0.40240        1.17760
C          1.75050       -1.50620        0.57410
O          2.06910       -0.98630       -0.73080
C          1.23610        0.13000       -0.92010
C         -0.02020        0.03070       -0.00730
H         -0.43090        2.06990        0.93460
H         -0.44500        2.01580       -0.86480
H          2.22640        2.16160       -0.18740
H          0.42220       -0.61780        2.14120
H          2.67240       -1.64920        1.14490
H          1.22500       -2.46840        0.48100
H          1.09380        0.33420       -1.98030
H         -0.88610       -0.58670       -0.23990
