16
gdb 2849	6.22879	1.46098	1.28634	2.9232	63.9	-0.2399	-0.0295	0.2103	938.1184	0.135243	-325.753993	-325.746359	-325.745414	-325.786033	26.969
C         -0.13460        1.63680       -0.32890
C          0.05220        0.21190        0.18640
N         -1.23660       -0.48650        0.16580
C         -1.54950       -1.32390       -0.96140
C         -1.32170       -1.93630        0.39780
C         -0.12300       -2.79370        0.58310
O         -0.11760       -3.78530        1.27120
H          0.81050        2.18640       -0.28590
H         -0.47800        1.63440       -1.36840
H         -0.87770        2.16780        0.27190
H          0.82490       -0.29400       -0.41320
H          0.40410        0.22790        1.22400
H         -2.56350       -1.27790       -1.34920
H         -0.77560       -1.48920       -1.71260
H         -2.17720       -2.25220        0.98920
H          0.78720       -2.47410        0.03010
