15
gdb 19656	4.71272	2.09849	1.95824	2.9921	64.08	-0.2392	-0.02	0.2192	717.8747	0.12166	-362.610289	-362.604758	-362.603814	-362.63975	22.71
O         -0.05510       -0.00350       -0.10510
C         -0.04100        1.18180        0.04820
C         -1.06550        2.32450        0.00610
C         -0.71320        2.96430        1.37140
N          0.71490        3.33900        1.08950
C          0.49150        4.29950       -0.06280
C          0.02640        3.09160       -0.86940
C          1.03290        2.26120        0.02310
H         -2.09970        2.18660       -0.29760
H         -1.29400        3.85470        1.62100
H         -0.77240        2.25850        2.20470
H         -0.19240        5.12740        0.14810
H          1.45100        4.69200       -0.40820
H         -0.04130        3.01340       -1.95310
H          2.09140        2.11200       -0.17130
