11
gdb 104	7.51163	5.3853	3.80314	2.4925	38.43	-0.2369	0.0642	0.3011	370.2795	0.090396	-268.251114	-268.245852	-268.244908	-268.278934	19.173
O         -0.21700        1.38230       -0.01070
C         -0.04260       -0.01060        0.00360
C         -0.44540       -0.78810        1.23940
C         -1.33880       -0.77010        0.01450
O         -2.51910       -0.03510        0.03490
H          0.31130        1.76670        0.69590
H          0.79150       -0.36800       -0.59700
H          0.10760       -1.68830        1.48590
H         -0.79730       -0.21160        2.08920
H         -1.42240       -1.67560       -0.57870
H         -2.25170        0.89380       -0.01140
