16
gdb 9860	5.5988	0.9368	0.86143	1.4655	89.52	-0.228	-0.0095	0.2185	1335.2425	0.128242	-309.409039	-309.400482	-309.399537	-309.441979	31.771
C         -0.04140        1.50960        0.00520
C          0.00660       -0.01250       -0.00210
C          1.35410       -0.69200       -0.22420
C          0.73120       -0.71810        1.13980
C         -1.15340       -0.65840       -0.54410
C         -2.14670       -1.17620       -1.00760
C         -3.25510       -1.76950       -1.52540
C         -4.24060       -2.29490       -1.98650
H          0.87930        1.91680        0.43380
H         -0.14920        1.90230       -1.01040
H         -0.88530        1.87140        0.60030
H          1.36410       -1.60880       -0.80090
H          2.20270       -0.03810       -0.39430
H          1.14900       -0.08240        1.91300
H          0.31530       -1.65290        1.49560
H         -5.10570       -2.75860       -2.39060
