22
gdb 12540	3.11523	1.72171	1.2012	0.2534	83.32	-0.2331	0.0239	0.257	1075.3231	0.202351	-313.091764	-313.083596	-313.082652	-313.12398	32.064
C         -0.01870        1.59400       -0.02370
C         -0.01750        0.05850       -0.00440
C          0.71480       -0.47960       -1.24700
C          0.62540       -1.98960       -1.50380
C          1.34230       -2.87820       -0.47060
C          0.67770       -2.94690        0.88370
C          0.35120       -1.90550        1.64880
C          0.58610       -0.44870        1.32520
H          1.00310        1.98830        0.03520
H         -0.46910        1.97990       -0.94420
H         -0.58060        2.00340        0.82230
H         -1.06060       -0.28500       -0.04860
H          0.31700        0.03980       -2.12840
H          1.77440       -0.18890       -1.18230
H         -0.42790       -2.29120       -1.56680
H          1.06370       -2.19110       -2.48940
H          1.42350       -3.89180       -0.87730
H          2.37710       -2.51910       -0.35870
H          0.45600       -3.94390        1.25860
H         -0.12080       -2.10790        2.60790
H          1.66770       -0.24020        1.31110
H          0.18100        0.15910        2.14170
