21
gdb 15186	8.51703	0.68602	0.66589	2.4227	76.96	-0.2438	0.0791	0.3229	1748.0204	0.187836	-366.227885	-366.218344	-366.2174	-366.263326	33.25
C         -0.15870        1.43260        0.04320
C         -0.10500       -0.09190        0.16680
C          0.86220       -0.55460        1.24750
O          0.84310       -1.96570        1.30260
C          1.71760       -2.50000        2.27210
C          1.65950       -4.00150        2.21000
C          1.84950       -4.79050        3.45240
N          0.52870       -4.72560        2.80700
H          0.82270        1.84850       -0.21060
H         -0.85980        1.73870       -0.73850
H         -0.48300        1.89870        0.98030
H         -1.09930       -0.49100        0.39750
H          0.19770       -0.54140       -0.78580
H          1.88320       -0.19340        1.03030
H          0.57600       -0.12890        2.22600
H          2.75040       -2.15270        2.09160
H          1.43370       -2.15480        3.28350
H          1.99330       -4.42380        1.26470
H          2.33420       -5.76150        3.41080
H          2.00870       -4.24760        4.38130
H         -0.07150       -4.07010        3.30280
