12
gdb 20483	5.18659	2.20412	1.56731	2.149	55.62	-0.2064	0.0196	0.226	731.0847	0.086648	-414.64143	-414.635479	-414.634535	-414.671533	22.024
C          0.03120        1.36830       -0.11380
O          1.27950        1.94040        0.33560
C          2.00600        0.84310        0.70830
C          3.23090        0.42990        1.14960
N          3.04750       -0.91000        1.43490
N          1.78930       -1.37990        1.15010
C          1.19580       -0.28870        0.73750
O         -0.08170        0.01970        0.38090
H         -0.79540        1.96380        0.27920
H          0.02330        1.34720       -1.21260
H          4.17380        0.92250        1.31410
H          3.77260       -1.58770        1.59080
