15
gdb 8571	4.31926	2.05806	1.7754	5.1864	60.51	-0.2499	0.0495	0.2994	756.6174	0.121522	-399.829898	-399.823701	-399.822757	-399.860297	24.445
O          0.01060       -0.02410       -0.03020
C         -0.03380        1.17740        0.00860
N         -1.17980        1.92880        0.09170
C         -1.10630        3.38160        0.02960
C         -0.09730        3.76550       -1.09350
C          0.97430        3.36170       -0.04910
C         -0.01640        3.82370        1.04810
O          1.11300        1.92850       -0.01460
H         -2.04650        1.43340       -0.02960
H         -2.10630        3.81300        0.05890
H         -0.13530        3.20520       -2.02950
H         -0.07860        4.84010       -1.28460
H          1.98800        3.75670       -0.09830
H          0.01120        4.90700        1.17890
H          0.01570        3.31300        2.01180
