12
gdb 5479	3.66867	1.9188	1.26077	3.958	62.14	-0.2303	-0.053	0.1773	870.1511	0.084975	-414.702028	-414.695251	-414.694307	-414.733063	24.573
N          0.08730        1.38160        0.13330
C         -0.01230        0.02460        0.04230
C         -1.12240       -0.80200        0.01150
O         -0.63500       -2.10310       -0.02440
C          0.68690       -1.96710       -0.01390
N          1.13350       -0.74680        0.02370
C         -2.53580       -0.55260        0.00960
O         -3.41670       -1.38720       -0.02360
H          0.98950        1.75730       -0.11460
H         -0.70110        1.93680       -0.15570
H          1.27480       -2.87240       -0.03940
H         -2.77160        0.53760        0.04360
