18
gdb 7151	7.16354	0.72015	0.66507	0.2333	64.89	-0.2479	-0.0129	0.235	1627.043	0.150629	-422.083396	-422.073356	-422.072412	-422.119699	33.675
O         -0.20410        1.47500        0.01210
C          0.01340        0.07140        0.00280
C         -1.35490       -0.59360        0.01180
C         -1.28690       -2.11090        0.00310
O         -0.22830       -2.70310       -0.01000
C         -2.61560       -2.84700        0.01170
C         -2.46620       -4.36100        0.00280
O         -3.77600       -4.91020        0.01200
H          0.65390        1.90900        0.00640
H          0.57310       -0.24900       -0.88730
H          0.58930       -0.25820        0.87910
H         -1.92490       -0.26580        0.89110
H         -1.94090       -0.25660       -0.85340
H         -3.19330       -2.53280        0.89090
H         -3.20930       -2.52410       -0.85350
H         -1.90020       -4.67040       -0.88720
H         -1.88400       -4.67930        0.87920
H         -3.69690       -5.86840        0.00640
