18
gdb 18118	4.30572	1.87513	1.39651	1.5473	73.41	-0.2339	0.0163	0.2502	896.4386	0.156813	-347.815536	-347.808895	-347.807951	-347.846333	26.031
C         -0.06140        1.49750        0.04800
C          1.42470        1.95660       -0.05080
C          2.14250        0.76650       -0.71510
C          3.48340        0.22350       -0.21000
O          3.43620       -1.18020       -0.49430
C          2.07970       -1.64650       -0.41220
C          1.24920       -0.40170       -0.36170
C          0.05400       -0.01680        0.07360
H         -0.56470        1.89700        0.93560
H         -0.64710        1.84120       -0.81700
H          1.54470        2.89740       -0.59400
H          1.82210        2.10550        0.96010
H          2.20030        0.89150       -1.80640
H          4.36670        0.62320       -0.71560
H          3.58700        0.40230        0.87320
H          1.88590       -2.27070       -1.29440
H          1.93940       -2.27440        0.47950
H         -0.74540       -0.66400        0.41720
