16
gdb 19367	4.42328	1.7134	1.54209	1.0672	63.8	-0.2317	0.0625	0.2942	862.0858	0.128908	-383.638918	-383.631752	-383.630808	-383.670299	27.388
C          0.04970        1.32980        0.24900
O         -0.00350       -0.02090       -0.18980
C         -1.26060       -0.56640       -0.10910
C         -1.90730       -1.04470        1.16220
C         -1.62440       -2.02480        0.03490
C         -2.64960       -1.85190       -1.13120
O         -3.60220       -0.82730       -0.79560
C         -2.30950       -0.44320       -1.28040
H          1.08450        1.65940        0.13560
H         -0.60100        1.97780       -0.35450
H         -0.24890        1.41840        1.30190
H         -1.21070       -1.13530        1.99010
H         -2.92370       -0.77980        1.42470
H         -0.97250       -2.87990        0.14800
H         -2.95320       -2.59970       -1.85310
H         -2.24940        0.20270       -2.14860
