13
gdb 18666	3.60925	2.42557	1.63305	2.6066	58.83	-0.2659	-0.0232	0.2427	745.4708	0.097415	-398.630354	-398.624362	-398.623418	-398.660534	22.911
O          0.06070       -0.01950        0.25160
C          0.04070        1.14870       -0.00230
O         -1.18690        1.73860       -0.29210
C         -1.24470        2.95480       -0.92910
N         -0.29870        3.74380       -1.19470
C          1.00470        3.40930       -0.73070
C          1.23040        3.33140        0.74650
C          1.21190        2.04390       -0.06160
H         -2.27070        3.17140       -1.21160
H          1.80590        3.79640       -1.34950
H          2.19690        3.63060        1.13380
H          0.38850        3.54710        1.39450
H          2.14870        1.51430       -0.18140
