17
gdb 9300	5.59012	0.87131	0.80787	4.0685	69.88	-0.2407	-0.0206	0.2201	1407.8665	0.138469	-400.998252	-400.988631	-400.987687	-401.034016	32.001
C          0.30190        1.01000        0.57140
O         -0.23710        0.29180       -0.53270
C          0.58310       -0.62050       -1.08970
N          0.17870       -1.31770       -2.05560
C          1.04330       -2.31110       -2.66800
C          2.39980       -2.62290       -2.03240
C          0.19950       -3.57810       -2.84700
O          0.64080       -4.69710       -2.83720
H          0.53110        0.34290        1.41110
H          1.20700        1.56170        0.28960
H         -0.46640        1.71980        0.87940
H          1.57800       -0.66960       -0.62930
H          1.21490       -1.97130       -3.70570
H          3.07270       -1.76190       -2.07340
H          2.28600       -2.93180       -0.98830
H          2.86150       -3.45330       -2.56990
H         -0.87920       -3.36550       -3.00420
