17
gdb 12523	3.20906	2.02714	1.42432	1.8903	71.41	-0.2406	0.0044	0.245	902.6006	0.143205	-363.861439	-363.853822	-363.852878	-363.894206	28.019
C         -0.66670        1.45790        0.09190
C          0.05370        0.09280        0.01970
C          0.62830       -0.10830       -1.36170
C          1.89720       -0.02490       -1.74710
C          3.06310        0.30330       -0.85980
O          3.12800       -0.37580        0.39860
C          2.11540       -0.27740        1.29720
N          0.87980       -0.05980        1.20140
H          0.05130        2.27390       -0.03370
H         -1.42330        1.54180       -0.69400
H         -1.15100        1.56760        1.06520
H         -0.73060       -0.67000        0.14110
H         -0.12610       -0.31270       -2.12070
H          2.13910       -0.16100       -2.79820
H          4.00010        0.03420       -1.35340
H          3.09920        1.38560       -0.66560
H          2.53320       -0.46130        2.28880
