15
gdb 21285	6.99861	1.33355	1.13603	3.1055	63.8	-0.227	0.0206	0.2477	1032.6683	0.119843	-396.010361	-396.002437	-396.001493	-396.043517	27.362
C         -0.07730        1.38070        0.06030
O         -0.06680       -0.02730        0.28000
C         -1.23650       -0.64390        0.10820
N         -2.35640       -0.02760       -0.24240
N         -3.22640       -1.08080       -0.27850
C         -2.60230       -2.23140        0.04150
C         -3.27710       -3.55940        0.09250
N         -1.32650       -1.98700        0.29480
H          0.94360        1.71890        0.24110
H         -0.37740        1.61470       -0.96640
H         -0.76860        1.87920        0.74780
H         -4.18960       -0.92320       -0.52260
H         -4.33700       -3.47750       -0.16240
H         -2.80430       -4.25490       -0.60670
H         -3.19310       -3.99200        1.09360
