15
gdb 6596	6.09174	1.32198	1.32038	4.1323	67.14	-0.2813	0.0251	0.3064	932.5324	0.119544	-362.630793	-362.62385	-362.622906	-362.661672	26.956
O         -0.08200        1.32600        0.00550
C          0.02310       -0.04380        0.00160
C          0.66870       -0.97570        1.08040
C          0.04290       -1.90960       -0.00280
C         -1.21150       -0.97580        0.00850
C          0.65280       -0.97080       -1.09080
C          0.05190       -3.34580       -0.00620
N          0.06040       -4.50230       -0.00900
H          0.80220        1.70890       -0.00010
H          1.75940       -0.98600        1.14580
H          0.19440       -0.99510        2.06350
H         -1.81240       -0.99110        0.91970
H         -1.82570       -0.98700       -0.89390
H          0.16420       -0.98570       -2.06700
H          1.74250       -0.98070       -1.17220
