16
gdb 7269	4.47321	1.2736	1.00387	2.1682	66.42	-0.253	0.0048	0.2578	1139.7071	0.129258	-417.097659	-417.088485	-417.087541	-417.13216	30.517
C         -0.12550        1.38830        0.07390
N         -0.03830       -0.05830       -0.03160
C          0.03630       -0.79560        1.21940
C         -0.03350       -0.61780       -1.26720
O         -0.09530       -0.02120       -2.31920
O          0.05340       -1.99570       -1.17980
C          0.06880       -2.69620       -2.35420
N          0.14780       -3.95080       -2.29000
H          0.75240        1.78720        0.59670
H         -0.17490        1.81220       -0.92710
H         -1.02080        1.67740        0.63780
H         -0.85160       -0.59230        1.83090
H          0.09820       -1.86290        1.02780
H          0.91950       -0.48220        1.79000
H          0.00820       -2.04970       -3.22960
H          0.14950       -4.34040       -3.23130
