13
gdb 3411	4.99773	2.98097	2.11857	3.6194	59.36	-0.2383	-0.0507	0.1876	608.0564	0.103572	-307.33553	-307.330163	-307.329219	-307.364476	21.02
O          0.03620       -0.01220       -0.07100
C         -0.00120        1.19450       -0.00860
C         -1.21520        2.05820        0.07990
C         -0.86570        3.35130        0.02450
C          0.61690        3.53090       -0.04090
C          1.35480        3.03120        1.18470
C          1.18660        2.13720       -0.03410
H         -2.21150        1.65070        0.18820
H         -1.54800        4.19270        0.07320
H          1.04650        4.33420       -0.62700
H          2.35430        3.41250        1.36750
H          0.77440        2.81680        2.07560
H          2.06750        1.84880       -0.59220
