15
gdb 1262	7.25727	1.08525	0.96087	3.5208	68.51	-0.2523	-0.0439	0.2084	1200.2744	0.12236	-308.518276	-308.509654	-308.508709	-308.552603	28.531
C         -0.04340        1.53910       -0.03120
C          0.13990        0.01050       -0.02870
C          0.75630       -0.49520        1.19020
C          1.26910       -0.88200        2.21310
C          1.88460       -1.35180        3.43940
C          2.10150       -2.84990        3.52620
O          2.20050       -0.58970        4.32890
H          0.91990        2.04520        0.06970
H         -0.50880        1.86210       -0.96680
H         -0.67950        1.85470        0.79950
H         -0.83100       -0.48330       -0.16520
H          0.75180       -0.29480       -0.88740
H          1.14500       -3.37430        3.42680
H          2.73690       -3.18610        2.69970
H          2.56700       -3.09780        4.48120
