24
gdb 11565	5.10925	0.90361	0.81887	0.1312	85.76	-0.2687	0.0884	0.3571	1500.8151	0.222558	-314.26898	-314.259069	-314.258125	-314.304006	36.6
C          0.05720        1.57180       -0.01850
C         -0.03920        0.04410        0.04790
C         -1.46880       -0.52380       -0.04110
C         -2.13470       -0.20500       -1.38720
C         -1.45310       -2.03810        0.25200
C         -2.81890       -2.68100        0.39020
C         -3.50430       -3.34310       -0.78100
C         -2.95780       -4.18220        0.34700
H          1.08990        1.90420        0.12790
H         -0.27760        1.96440       -0.98330
H         -0.55480        2.04040        0.76080
H          0.56930       -0.39610       -0.75480
H          0.41210       -0.29650        0.98890
H         -2.06370       -0.04350        0.75160
H         -1.56710       -0.64710       -2.21570
H         -3.15120       -0.60370       -1.43170
H         -2.19380        0.87280       -1.56390
H         -0.88890       -2.55520       -0.53780
H         -0.89040       -2.20360        1.18140
H         -3.47780       -2.17310        1.09170
H         -4.58050       -3.24690       -0.87790
H         -2.97600       -3.36500       -1.72860
H         -2.06250       -4.76540        0.15570
H         -3.65930       -4.65850        1.02310
