17
gdb 6025	2.71731	1.81097	1.41341	4.7354	64.24	-0.285	0.0178	0.3028	941.0401	0.139114	-401.013005	-401.003652	-401.002708	-401.046243	34.24
C          0.04800        1.56020       -0.10450
C          0.00220        0.04180        0.02120
O          0.53410       -0.39710        1.27350
C         -1.44680       -0.53530        0.02630
C         -1.42560       -2.07470       -0.01630
O         -2.12910       -0.06870        1.17870
C         -2.17870       -0.03040       -1.15190
N         -2.72040        0.33580       -2.10390
H          1.07900        1.91700        0.00090
H         -0.31630        1.88320       -1.08260
H         -0.57040        2.02380        0.66850
H          0.55640       -0.42400       -0.80620
H          1.28110        0.16480        1.49930
H         -0.83220       -2.44490        0.82220
H         -2.44520       -2.45560        0.06700
H         -0.98550       -2.43870       -0.94910
H         -1.48500       -0.16630        1.89490
