14
gdb 1388	4.71246	1.41059	1.14126	4.1576	66.15	-0.2669	0.0204	0.2873	1024.0718	0.111627	-287.433999	-287.425591	-287.424647	-287.468115	27.836
C         -0.01010        1.49090        0.02380
C          0.00210        0.03580       -0.00180
C          0.02140       -1.16650       -0.02700
C          0.01630       -2.63070       -0.04620
C         -1.41840       -3.21310        0.00110
C          0.73900       -3.14450       -1.22400
N          1.29420       -3.56920       -2.14370
H          1.00830        1.89360        0.02010
H         -0.53310        1.89680       -0.84860
H         -0.51460        1.86640        0.92050
H          0.56140       -2.99780        0.83450
H         -1.38360       -4.30510        0.01190
H         -1.92020       -2.86010        0.90440
H         -1.99020       -2.88540       -0.86920
