15
gdb 19685	4.29043	1.96109	1.91107	3.546	64.08	-0.2469	-0.0292	0.2177	749.463	0.119324	-362.592705	-362.586396	-362.585452	-362.623354	24.06
O         -0.17600        0.04890        0.31260
C         -0.02680        1.19590       -0.02280
C          1.26760        1.95920        0.06200
C          1.50230        2.91140        1.26880
C          1.35400        1.96040        2.48830
C          2.57220        1.23450        1.92370
C          2.99820        2.42420        1.15290
N          2.51540        1.21920        0.41620
H         -0.88010        1.80140       -0.41370
H          1.43570        2.48450       -0.88610
H          1.12330        3.93080        1.28810
H          1.61170        2.47360        3.41800
H          0.41620        1.41120        2.60940
H          3.17020        0.45340        2.37240
H          3.94600        2.91250        0.97150
