22
gdb 14996	3.99234	1.38046	1.10692	1.1829	78.6	-0.2419	0.0892	0.331	1153.6552	0.201949	-350.229994	-350.221684	-350.22074	-350.26256	32.024
C         -0.05280        1.56520        0.00500
C          0.01410        0.03610       -0.01150
C          0.71970       -0.52660       -1.24230
C          0.86780       -2.05310       -1.20860
C          1.48240       -2.57170       -2.51630
C          0.70170       -2.02710       -3.72060
C          0.56580       -0.50740       -3.60940
O         -0.03240       -0.12200       -2.38440
H          0.95130        2.00420        0.02210
H         -0.56510        1.93570       -0.88610
H         -0.58920        1.92720        0.88740
H          0.53810       -0.32980        0.88010
H         -0.99900       -0.38360        0.02290
H          1.73050       -0.08000       -1.31200
H          1.48240       -2.34410       -0.34880
H         -0.12630       -2.49580       -1.06280
H          2.52760       -2.23870       -2.58260
H          1.50200       -3.66670       -2.52720
H          1.19640       -2.28770       -4.66350
H         -0.30190       -2.46970       -3.74470
H          1.56020       -0.03630       -3.70800
H         -0.07350       -0.10430       -4.40090
