15
gdb 2181	3.76038	2.8335	1.83757	1.593	52.27	-0.2502	0.0524	0.3026	686.9143	0.125991	-382.782251	-382.775391	-382.774446	-382.813451	25.095
O         -0.17540        1.47340        0.30230
C         -0.01650        0.06920        0.11670
C          0.58530       -0.53290        1.40080
O         -0.25850       -1.60820        1.79360
C         -1.57310       -1.25480        1.40320
C         -1.40940       -0.63640        0.00310
O         -2.43790        0.24160       -0.38610
H         -0.36030        1.85840       -0.56120
H          0.60670       -0.12570       -0.76270
H          1.59420       -0.93090        1.27100
H          0.61110        0.25730        2.16640
H         -2.19060       -2.15510        1.42430
H         -2.01560       -0.50700        2.08460
H         -1.36980       -1.42790       -0.75040
H         -2.30870        1.04170        0.14100
