18
gdb 17911	3.33351	2.26053	2.14239	0.0474	74.66	-0.2182	-0.0008	0.2175	769.9875	0.156062	-310.659142	-310.652791	-310.651847	-310.688972	26.999
C         -0.11500        1.53910        0.00090
C          0.07820        0.02810        0.02070
C          1.13890       -0.59380       -0.95810
C          2.42650       -0.05850       -0.30260
C          2.22960       -0.06600        1.01490
C          0.80770       -0.60720        1.25920
C          0.79500       -2.07490        0.78890
C          0.99140       -2.06690       -0.52950
H          0.82320        2.07950        0.14440
H         -0.54960        1.85520       -0.95420
H         -0.81030        1.84470        0.79100
H         -0.89170       -0.45750       -0.12710
H          1.02240       -0.39040       -2.02310
H          3.32110        0.21510       -0.84550
H          2.92590        0.19990        1.79870
H          0.38480       -0.41630        2.24600
H          0.68520       -2.92630        1.44680
H          1.07970       -2.91030       -1.20110
