16
gdb 17595	3.86633	1.64692	1.20698	2.2007	68.14	-0.2457	-0.0558	0.1899	987.9393	0.129189	-379.912849	-379.904496	-379.903552	-379.946273	29.419
C          0.00570        1.37140       -0.12840
C          0.05500       -0.12660       -0.31120
O          1.08500       -0.73950       -0.47570
C         -1.28210       -0.86280       -0.26300
N         -2.32820       -0.19390        0.03710
N         -1.22630       -2.19450       -0.64570
C         -0.44450       -3.21660        0.01760
C         -1.94330       -3.25710        0.03150
H          1.02020        1.76950       -0.16310
H         -0.61060        1.82530       -0.91020
H         -0.47640        1.62190        0.82020
H         -3.15760       -0.79340        0.04110
H          0.11660       -3.87740       -0.63570
H          0.05840       -2.95060        0.94240
H         -2.44530       -3.00800        0.96490
H         -2.47860       -3.95230       -0.60850
