21
gdb 6394	2.68927	1.29949	1.07838	3.3989	76.36	-0.2392	0.0388	0.2781	1236.0881	0.186354	-366.314766	-366.30426	-366.303316	-366.352332	36.296
C          0.01560        1.61290        0.34480
C          0.01780        0.10250        0.10080
C          0.77870       -0.70290        1.16750
C          0.63420       -2.21450        0.95240
N          2.18700       -0.32030        1.20990
C          2.81430        0.12120        2.34110
C          4.30080        0.41070        2.18350
O          2.24020        0.27350        3.40490
H          1.03420        2.01180        0.36320
H         -0.53740        2.13710       -0.44050
H         -0.45050        1.85620        1.30520
H         -1.01350       -0.26940        0.06820
H          0.44770       -0.11760       -0.88740
H          0.39360       -0.44290        2.15800
H          1.16020       -2.76890        1.73430
H         -0.41960       -2.51000        0.97080
H          1.04720       -2.51720       -0.01770
H          2.73620       -0.45680        0.37610
H          4.65940        0.34060        1.15300
H          4.50370        1.41370        2.56620
H          4.86410       -0.29400        2.80190
