14
gdb 2982	4.52558	1.94025	1.45523	3.5804	57.86	-0.2964	0.0131	0.3095	811.2429	0.112983	-324.567513	-324.560217	-324.559273	-324.59913	25.907
O         -0.28600        1.24760        0.08470
C          0.05250       -0.12200       -0.03940
C          0.80130       -0.36480       -1.29470
N          1.41110       -0.52940       -2.26230
C          0.81710       -0.67430        1.14710
C          0.06380       -1.00770        2.40700
C          0.62910       -2.11430        1.55510
H          0.53060        1.75460        0.16030
H         -0.90700       -0.64600       -0.11950
H          1.81730       -0.26310        1.25660
H          0.53960       -0.78810        3.35570
H         -1.01060       -0.85770        2.40420
H         -0.06350       -2.71850        0.97840
H          1.49720       -2.65650        1.91080
