16
gdb 20549	4.45221	1.5641	1.2569	1.0688	65.27	-0.2896	-0.0213	0.2683	968.9935	0.130835	-379.934711	-379.927096	-379.926152	-379.9671	27.457
C         -0.17870        1.61890       -0.03460
C          0.04030        0.10210       -0.03700
C         -1.28470       -0.67380        0.09100
C          0.79290       -0.36630       -1.24790
N          1.10530        0.40880       -2.25320
O          1.78410       -0.44630       -3.13610
C          1.79740       -1.64150       -2.54760
N          1.21480       -1.67890       -1.39480
H          0.76790        2.16130       -0.09940
H         -0.79550        1.92710       -0.88390
H         -0.68850        1.91960        0.88530
H          0.66400       -0.16890        0.82570
H         -1.95760       -0.42980       -0.73790
H         -1.11000       -1.75230        0.08530
H         -1.78710       -0.40720        1.02550
H          2.28490       -2.44590       -3.07910
