16
gdb 20165	3.41242	2.99403	2.12007	1.8027	67.36	-0.2325	0.0013	0.2338	686.8743	0.133538	-346.574824	-346.56936	-346.568416	-346.604029	23.081
C         -0.01720        1.55690        0.01520
C          1.53160        1.52800        0.01580
O          2.11460        1.36230        1.32610
C          2.07290       -0.10650        1.21260
C          0.96190       -0.71970        2.02770
C         -0.19340       -0.66110        1.36040
C         -0.03320       -0.02510        0.00210
C          1.51210        0.00170       -0.22240
H         -0.49210        2.04920        0.86580
H         -0.40960        1.97540       -0.91670
H          2.07130        2.26570       -0.58270
H          3.07070       -0.52230        1.37720
H          1.09340       -1.07840        3.04160
H         -1.15840       -0.96590        1.75210
H         -0.65890       -0.46370       -0.77720
H          1.97000       -0.53300       -1.05160
