17
gdb 15528	3.00779	1.89273	1.24336	4.0254	74.61	-0.2514	0.0084	0.2598	975.0785	0.143112	-326.766596	-326.758779	-326.757835	-326.798867	28.731
C         -0.06160        1.50910        0.03350
C          0.01480        0.01760       -0.01830
C          0.02880       -0.77570       -1.08950
C          0.05350       -2.24400       -0.74990
C          0.39930       -2.24930        0.75830
C          0.00980       -0.82710        1.25960
C          0.90040       -0.32100        2.30500
N          1.60790        0.08600        3.12380
H          0.78100        1.92990        0.59440
H         -0.06000        1.94080       -0.97030
H         -0.97360        1.84150        0.54630
H         -0.01900       -0.41370       -2.11120
H         -0.92470       -2.70550       -0.94520
H          0.78240       -2.80980       -1.34020
H         -0.10670       -3.03590        1.32150
H          1.47520       -2.38750        0.89120
H         -1.00520       -0.82880        1.68450
