13
gdb 4617	5.59783	1.5842	1.23476	3.5657	66.11	-0.2023	-0.0477	0.1547	899.8678	0.096478	-398.62284	-398.616217	-398.615273	-398.653502	25.471
O         -0.06080        1.38170        0.01060
C          0.03760        0.01970        0.00280
C          1.18870       -0.67740       -0.00790
O          1.22360       -2.03960       -0.01530
C          0.06180       -2.80400       -0.01230
N          0.11760       -4.07480       -0.01940
C         -1.18460       -2.05920       -0.00080
C         -1.20260       -0.71250        0.00650
H          0.82070        1.76990        0.00740
H          2.18290       -0.24690       -0.01170
H          1.08710       -4.39250       -0.02700
H         -2.08860       -2.65400        0.00160
H         -2.12960       -0.14990        0.01510
