16
gdb 2971	4.34029	2.09297	1.50807	1.258	66.96	-0.2381	0.0464	0.2845	823.2257	0.134931	-288.572051	-288.564392	-288.563448	-288.603615	28.178
C          0.07290        1.42770        0.04800
C         -0.10850       -0.09620       -0.00530
C         -1.52480       -0.46730       -0.02980
C         -2.68900       -0.76420       -0.03560
N          0.56470       -0.62380       -1.20100
C          1.97520       -0.96550       -1.03140
C          0.94280       -2.03110       -1.15580
H          1.13750        1.67480        0.09490
H         -0.35370        1.88530       -0.84740
H         -0.42310        1.84230        0.92900
H          0.33480       -0.53090        0.91170
H         -3.71700       -1.03020       -0.04430
H          2.62390       -0.71840       -1.86650
H          2.42270       -0.82110       -0.04870
H          0.70000       -2.59620       -0.25760
H          0.82130       -2.58060       -2.08450
