19
gdb 10961	5.38294	1.29004	1.17481	2.2809	72.85	-0.222	0.078	0.2999	1087.9732	0.164672	-365.00844	-365.000129	-364.999185	-365.041011	30.972
C          0.00070        1.31630       -0.15930
O         -0.03720        0.01540        0.37920
C         -1.26000       -0.62960        0.17700
C         -1.63110       -1.18980       -1.25230
C         -1.79320       -2.57320       -0.60000
C         -2.79490       -3.62660       -0.95550
N         -0.44140       -2.89820       -0.09030
C         -1.34730       -2.04510        0.72600
H          0.98100        1.73760        0.07560
H         -0.12990        1.31490       -1.25210
H         -0.77780        1.96260        0.27820
H         -2.08940       -0.01450        0.56170
H         -2.55510       -0.76570       -1.65210
H         -0.83410       -1.13690       -1.99720
H         -2.54650       -4.10230       -1.91180
H         -2.83040       -4.41090       -0.19120
H         -3.80030       -3.20140       -1.04820
H         -0.49210       -3.83220        0.31890
H         -1.62270       -2.34150        1.73140
