19
gdb 13375	6.21728	1.03379	0.91134	1.0818	73.08	-0.2392	0.0338	0.273	1306.6293	0.165978	-365.09394	-365.085313	-365.084368	-365.128526	30.001
C          0.07050        1.60530       -0.01610
C          0.02580        0.07650        0.03470
C          0.61830       -0.56390       -1.22260
C          0.59410       -2.05940       -1.21350
N          0.14480       -2.81170       -0.29410
C          0.34230       -4.19610       -0.74570
C          1.01020       -4.06350       -2.13970
O          1.12140       -2.63740       -2.33290
H          1.09920        1.97230       -0.10850
H         -0.49510        1.99360       -0.87080
H         -0.35730        2.04250        0.89100
H          0.56910       -0.29030        0.91160
H         -1.00560       -0.26920        0.15880
H          0.08560       -0.22460       -2.12110
H          1.65930       -0.24550       -1.36880
H          0.96980       -4.73790       -0.02980
H         -0.62030       -4.71690       -0.78960
H          2.01320       -4.49730       -2.18830
H          0.40870       -4.47600       -2.95500
