14
gdb 16326	3.23162	1.97801	1.40974	3.2077	57.29	-0.2764	-0.005	0.2714	856.6278	0.106701	-419.66292	-419.65568	-419.654735	-419.695081	26.247
O          0.13910        1.45050        0.36870
C          0.09140        0.09590       -0.04320
C         -1.31170       -0.44220       -0.01810
C         -2.03450       -1.02910        1.20600
C         -1.95600       -1.80890       -0.05250
O         -2.99410       -1.34240       -0.96520
C         -2.37510       -0.10120       -1.02930
O         -2.64430        0.81620       -1.73680
H         -0.38190        1.96180       -0.26110
H          0.51820       -0.03180       -1.04940
H          0.72260       -0.46330        0.65480
H         -1.35780       -1.32320        2.00380
H         -2.99150       -0.63320        1.53020
H         -1.55160       -2.79500       -0.22910
