13
gdb 18998	5.6706	1.96114	1.7288	1.4016	58.52	-0.254	0.0039	0.2579	726.3251	0.097021	-398.535571	-398.530205	-398.529261	-398.564932	21.716
N         -0.02400        1.28260       -0.02080
C         -0.02880        0.02550       -0.00470
O          1.08490       -0.80360       -0.02660
C          0.50870       -2.10300        0.00670
C         -0.78430       -2.14730       -0.85450
O         -1.39250       -3.10070        0.07470
C         -0.73190       -2.12460        0.94240
C         -1.18620       -0.92420        0.04110
H          0.93250        1.64140       -0.05320
H          1.25150       -2.89520       -0.00490
H         -0.92610       -2.29570       -1.92400
H         -0.81130       -2.24570        2.02170
H         -2.20220       -0.54500        0.06580
