11
gdb 2119	3.82303	3.66353	1.89373	4.0922	50.67	-0.2827	-0.0445	0.2383	615.5202	0.079912	-376.586976	-376.581189	-376.580245	-376.616933	20.369
N         -0.03840        1.29460       -0.10190
C         -0.03200        0.04490        0.03200
O          1.07070       -0.74970        0.20310
C          0.66230       -2.10170        0.31530
O         -0.75010       -2.13400        0.20840
C         -1.22150       -0.85940        0.03550
N         -2.42440       -0.51940       -0.09480
H          0.90970        1.67270       -0.06810
H          1.10660       -2.68940       -0.49600
H          0.96710       -2.49890        1.29020
H         -3.04220       -1.33170       -0.05640
