17
gdb 9503	2.69499	1.82381	1.67222	1.0214	65.46	-0.2281	-0.0287	0.1994	887.7671	0.139923	-400.977996	-400.969276	-400.968332	-401.011316	31.263
C         -0.07680        1.77610       -0.06980
C          0.05860        0.26700        0.04270
N          1.24400       -0.29960       -0.68240
C          1.58210       -1.16070        0.48110
C          0.59780       -0.34580        1.36320
O          1.18350        0.64150        2.18090
C         -1.18990       -0.44680       -0.44680
O         -1.80530       -1.29270        0.15260
H          0.86120        2.24960        0.22220
H         -0.30590        2.06070       -1.10290
H         -0.87660        2.15020        0.57770
H          1.03490       -0.79000       -1.54850
H          1.29740       -2.21500        0.38000
H          2.63490       -1.09180        0.77320
H         -0.14540       -0.93910        1.90360
H          1.46560        0.22320        2.99970
H         -1.47940       -0.15730       -1.48610
