10
gdb 21695	3.76128	1.99854	1.30618	3.6626	55.84	-0.2738	-0.0826	0.1911	819.4066	0.061348	-409.605905	-409.59942	-409.598476	-409.636631	23.39
N          0.06530        1.35080        0.14200
C          0.02440       -0.00720        0.03410
N         -1.07520       -0.72060        0.01170
O         -0.65150       -2.03870       -0.02970
N          0.68640       -2.14260       -0.04440
C          1.14070       -0.91190       -0.00520
C          2.51670       -0.57390       -0.01140
N          3.61600       -0.21300       -0.02110
H          0.89670        1.80760       -0.19920
H         -0.79560        1.83580       -0.05960
