18
gdb 7999	3.23058	1.60918	1.18366	1.4192	70.15	-0.2484	0.0095	0.2579	1030.2609	0.153204	-384.952817	-384.944358	-384.943413	-384.985672	31.648
C         -0.12840        1.51700        0.05630
C         -0.05020        0.02560       -0.01890
C         -0.07860       -0.75420       -1.10240
C         -0.02600       -2.22650       -0.77450
O          0.85100       -2.98110       -1.60240
C          0.34310       -2.23190        0.73110
C          0.02230       -0.81080        1.24930
O          0.92950       -0.31070        2.22480
H          0.69170        1.91850        0.66080
H         -0.09780        1.97730       -0.93450
H         -1.05530        1.83290        0.55240
H         -0.16960       -0.40850       -2.12760
H         -1.00450       -2.69630       -0.93580
H          1.70860       -2.54150       -1.58590
H         -0.15060       -3.02350        1.29870
H          1.42410       -2.40010        0.81780
H         -0.94770       -0.79160        1.76340
H          1.81060       -0.32580        1.83430
