11
gdb 2510	3.40959	2.35867	1.45933	4.3677	51.87	-0.3184	-0.0403	0.2781	775.2676	0.076999	-339.426816	-339.419476	-339.418532	-339.458581	24.111
C          0.10870        1.37510        0.06380
O         -0.15800       -0.01220       -0.12210
C          0.57060       -0.58490       -1.17170
C          2.02500       -0.66130       -0.87900
N          3.15420       -0.66390       -0.63940
C          0.03040       -1.93090       -1.43080
N         -0.39610       -2.97620       -1.66670
H          1.15460        1.54890        0.34520
H         -0.12320        1.94680       -0.84560
H         -0.54440        1.70080        0.87360
H          0.46110        0.00200       -2.10050
