9
gdb 3917	8.43982	2.04886	1.64864	4.161	47.99	-0.2758	-0.0741	0.2017	657.5025	0.05408	-375.351387	-375.345698	-375.344753	-375.381075	19.226
O         -0.04230       -0.02550       -0.00070
C          0.00720        1.17910        0.00840
C          1.24100        1.96800        0.00160
C          1.40840        3.32840        0.01070
O          2.67720        3.64060       -0.00120
N          3.39320        2.30840       -0.01860
N          2.52090        1.43700       -0.01530
H         -0.91170        1.80530        0.02240
H          0.68960        4.13450        0.02450
