18
gdb 17830	4.1668	1.60622	1.42251	2.5755	72.68	-0.2303	-0.0097	0.2206	947.7857	0.153578	-347.795859	-347.788103	-347.787158	-347.82843	29.074
C         -0.09160        1.50800        0.05060
C          0.11470        0.00350       -0.03740
O          1.22900       -0.47450       -0.10720
C         -1.13950       -0.81020       -0.03050
C         -1.38560       -2.07260       -0.84710
C         -0.13550       -2.95590       -0.96750
C         -0.07320       -3.03850        0.59200
C         -1.32530       -2.15280        0.66520
H          0.87330        2.01570        0.03930
H         -0.70420        1.85770       -0.78860
H         -0.63460        1.76450        0.96780
H         -2.03990       -0.20450        0.03750
H         -2.24870       -2.10690       -1.50210
H         -0.37050       -3.92110       -1.42210
H          0.72760       -2.51770       -1.46840
H         -0.27550       -4.04730        0.95950
H          0.82880       -2.65200        1.06620
H         -2.13370       -2.25980        1.37950
