12
gdb 4270	4.13388	1.989	1.35416	5.8927	57.77	-0.2651	-0.0524	0.2127	835.9453	0.084112	-414.714284	-414.70749	-414.706546	-414.746188	23.673
C         -0.02170        1.49010        0.08170
C         -0.00670        0.00550       -0.05720
N         -0.10510       -0.61010       -1.16490
C         -0.07810       -2.03020       -1.17100
O         -0.16750       -2.65080       -2.19350
N          0.05950       -2.69560        0.08360
C          0.14870       -1.97540        1.11980
O          0.12690       -0.61540        1.16340
H          0.90480        1.83300        0.55320
H         -0.12850        1.94260       -0.90270
H         -0.84950        1.79900        0.72790
H          0.25610       -2.38960        2.11910
