16
gdb 8692	2.73241	1.6621	1.32425	3.8102	60.77	-0.2714	0.0207	0.2921	964.5763	0.12972	-417.05005	-417.041047	-417.040103	-417.083324	32.376
N         -0.14130        1.44630        0.06980
C         -0.03580       -0.01860       -0.03300
C         -1.46840       -0.58380        0.10100
O         -2.08760       -0.13910        1.27720
C          0.64830       -0.49530       -1.34160
O          1.93510        0.06290       -1.49480
C          0.79910       -0.49240        1.08820
N          1.52200       -0.89120        1.89670
H          0.79050        1.85140        0.05340
H         -0.61320        1.79040       -0.76450
H         -2.02490       -0.27930       -0.80350
H         -1.44530       -1.67730        0.12560
H         -1.83730        0.79150        1.37170
H          0.66540       -1.59410       -1.37890
H          0.05170       -0.13670       -2.18750
H          2.52250       -0.36170       -0.85840
