14
gdb 17042	4.02592	1.7278	1.41123	2.3569	58.02	-0.256	-0.0455	0.2105	855.0534	0.105946	-419.600921	-419.594082	-419.593138	-419.632339	25.505
O         -0.04550        1.32650       -0.35180
C          0.00070       -0.04390       -0.17500
C          0.10110       -0.58190        1.28470
O         -1.27470       -0.07690        1.51130
C         -1.32420       -0.78240        0.19090
C         -0.52970       -1.94120        0.83120
C          0.24940       -2.94320        0.02420
O          0.38770       -2.91980       -1.17400
H         -0.62760        1.65770        0.34780
H          0.63170       -0.48770       -0.94220
H          0.83770       -0.40050        2.06770
H         -2.28350       -0.81190       -0.32440
H         -1.05310       -2.41660        1.66430
H          0.71180       -3.75190        0.63450
