20
gdb 18869	3.03838	2.34284	1.99077	0.1992	76.84	-0.2477	0.0881	0.3358	813.9754	0.180008	-311.855906	-311.849169	-311.848225	-311.886289	27.925
C         -0.26550        1.57180        0.06430
C          0.05300        0.08120       -0.00670
C          0.63020       -0.55560       -1.27540
C          2.14610       -0.43350       -1.36120
C          2.88560        0.64520       -0.57270
C          2.45700        0.39110        0.90030
C          1.25020       -0.55360        0.79270
C          1.53620       -1.45320       -0.44450
H          0.58920        2.20140       -0.19630
H         -1.07660        1.82030       -0.62990
H         -0.59690        1.85660        1.06980
H         -0.85100       -0.47900        0.26080
H          0.05670       -0.81650       -2.15900
H          2.56710       -0.77600       -2.30090
H          3.96790        0.53420       -0.69750
H          2.63380        1.65530       -0.91190
H          3.26370       -0.10440        1.45220
H          2.21890        1.31450        1.43770
H          0.97870       -1.03680        1.73200
H          1.68810       -2.52370       -0.47570
