17
gdb 2048	4.79475	2.37705	2.09727	1.6459	63.89	-0.2293	0.0827	0.312	705.0097	0.147821	-309.677276	-309.670313	-309.669369	-309.707558	26.755
C         -0.01050        1.53800       -0.02980
C          0.03700        0.02440       -0.04360
C         -1.17550       -0.66160        0.56170
C          0.65330       -0.76860       -1.19310
C          1.92640       -0.09690       -1.69260
O          2.45500        0.00340       -0.34160
C          1.32770       -0.71820        0.16370
H          0.95680        1.96890       -0.29590
H         -0.76790        1.91910       -0.72420
H         -0.26690        1.90060        0.97220
H         -2.08400       -0.42510       -0.00410
H         -1.06360       -1.75120        0.56640
H         -1.33230       -0.33610        1.59610
H          0.13010       -1.57510       -1.69060
H          2.55720       -0.75810       -2.29750
H          1.84020        0.87990       -2.18300
H          1.51050       -1.46520        0.92960
