20
gdb 11061	3.16532	2.25833	1.87466	1.3277	72.94	-0.2487	0.0755	0.3243	831.4698	0.179882	-349.035383	-349.028383	-349.027438	-349.066105	28.62
C         -0.06770        1.47140        0.01640
C          0.04600       -0.03640       -0.00070
C          0.64740       -0.66040       -1.28850
C          0.00440       -2.07770       -1.28250
C         -0.83520       -2.00970        0.01290
C          0.09260       -2.09950        1.24540
C          0.73500       -0.68210        1.23130
O         -1.26230       -0.64310        0.03960
H          0.92570        1.93030       -0.01200
H         -0.63410        1.82640       -0.84970
H         -0.57600        1.81030        0.92390
H          0.33780       -0.08630       -2.16580
H          1.74040       -0.68070       -1.27050
H         -0.64120       -2.22450       -2.15150
H          0.73710       -2.88890       -1.26690
H         -1.70480       -2.66730        0.03760
H         -0.49080       -2.26210        2.15460
H          0.82220       -2.90970        1.16450
H          1.82410       -0.70100        1.13720
H          0.48710       -0.12340        2.13760
