15
gdb 2586	3.02692	2.74901	1.71963	4.8629	61.46	-0.2728	0.0227	0.2955	762.0576	0.12523	-304.688809	-304.681478	-304.680534	-304.72012	26.386
C         -0.26980        1.48550       -0.05140
C          0.18470        0.02590        0.05680
C          0.79110       -0.51360       -1.23230
C          0.62290       -1.95490       -1.58900
N         -0.08740       -0.92340       -2.35030
C          2.00650        0.15960       -1.65230
N          2.98670        0.70030       -1.94090
H          0.57150        2.14020       -0.29690
H         -1.02910        1.61010       -0.83020
H         -0.69830        1.82540        0.89540
H          0.92000       -0.07740        0.86310
H         -0.66250       -0.61860        0.32120
H          1.40540       -2.46970       -2.13700
H          0.07280       -2.56880       -0.88060
H         -1.05650       -0.85750       -2.04580
