14
gdb 2022	7.88001	1.82132	1.69926	3.7355	58.95	-0.2402	0.0366	0.2768	740.9905	0.113406	-324.580266	-324.573809	-324.572865	-324.610643	24.278
O          0.05370       -0.01230        0.00390
C         -0.02180        1.18590        0.01110
C         -1.16100        2.24260        0.03170
C         -0.02560        3.27970        0.02140
C          0.08840        4.56270       -0.73580
C          0.11040        4.55390        0.78960
N          0.92680        2.18360        0.00110
H         -1.79810        2.22810       -0.85450
H         -1.77360        2.21920        0.93480
H          1.02080        4.77300       -1.24980
H         -0.79360        4.94710       -1.23750
H         -0.75660        4.93240        1.32090
H          1.05730        4.75850        1.27890
H          1.93530        2.15360       -0.01230
