16
gdb 3186	4.51199	2.36551	1.91143	2.1557	59.89	-0.2438	0.0875	0.3313	718.4726	0.136575	-325.729335	-325.722286	-325.721342	-325.760247	26.119
C         -0.04230        1.52200       -0.08290
C         -0.01620        0.00970       -0.04870
C          1.13970       -0.72220       -0.58940
O          0.96770       -0.56530        0.82500
C         -1.36470       -0.65520        0.01820
C         -1.51400       -2.02780        0.55060
N         -1.99160       -0.87290        1.33620
H          0.97250        1.92670       -0.07750
H         -0.55720        1.87780       -0.98160
H         -0.57820        1.91650        0.78660
H          1.00730       -1.73590       -0.96310
H          1.97710       -0.17130       -1.01590
H         -2.06550       -0.31010       -0.73990
H         -2.29540       -2.67490        0.16290
H         -0.61500       -2.53230        0.89090
H         -1.29620       -0.67640        2.05490
