17
gdb 19646	5.42207	1.71784	1.61953	1.738	70.26	-0.2102	0.069	0.2792	853.0215	0.142126	-326.606655	-326.599839	-326.598895	-326.637556	26.671
C         -0.01710        1.54800       -0.03150
C         -0.02550        0.01630        0.02160
C         -1.40190       -0.55910       -0.06620
C         -1.93610       -2.01680        0.03690
C         -3.21480       -1.57720       -0.69000
C         -3.10560       -1.46550        0.80760
N         -2.57340       -0.03640        0.73420
C         -2.64670       -0.14000       -0.77260
H          0.99670        1.93470        0.10380
H         -0.38900        1.91270       -0.99460
H         -0.65440        1.96120        0.75480
H          0.58460       -0.39610       -0.79340
H          0.43710       -0.32650        0.95720
H         -1.46050       -2.98730        0.05670
H         -3.87830       -2.15680       -1.31530
H         -3.70200       -1.86300        1.61920
H         -2.87700        0.71640       -1.39570
