13
gdb 4650	6.86014	1.27237	1.07718	6.5633	68.34	-0.2125	-0.0021	0.2104	1011.4667	0.098174	-357.696123	-357.68899	-357.688046	-357.727443	26.319
N          0.10350        1.40100        0.13880
C         -0.02730        0.00520        0.04740
C         -1.11190       -0.83640        0.04120
C         -0.60290       -2.17750        0.01180
C          0.77660       -2.09960       -0.00950
N          1.10830       -0.77520        0.01940
C         -1.36310       -3.37150       -0.01020
N         -1.99520       -4.34280       -0.02860
H          0.38280        1.82720       -0.74010
H         -0.76730        1.82690        0.43000
H         -2.15080       -0.54860        0.04030
H          1.52130       -2.87650       -0.04370
H          2.04080       -0.40520        0.09470
