18
gdb 11058	3.36589	2.35045	1.97472	2.209	66.46	-0.2429	0.0875	0.3304	775.3932	0.155726	-384.959049	-384.952385	-384.951441	-384.989418	26.966
C         -0.05170        1.46670        0.07720
C          0.03080       -0.03180       -0.04780
C          0.72870       -0.70560       -1.23920
C          0.40520       -2.10000       -0.66750
C          1.01520       -1.94500        0.73660
O          0.72630       -0.57490        1.07520
C         -1.11840       -1.95910       -0.50500
O         -1.28370       -0.58810       -0.09480
H          0.95130        1.89670        0.11820
H         -0.59230        1.88590       -0.77410
H         -0.58390        1.72860        0.99490
H          0.24440       -0.49220       -2.19430
H          1.79620       -0.48190       -1.29110
H          0.73510       -2.97680       -1.22440
H          0.55830       -2.61350        1.47610
H          2.10130       -2.10500        0.74300
H         -1.65890       -2.13010       -1.44520
H         -1.52900       -2.62720        0.26150
