12
gdb 511	21.91055	1.33512	1.27835	1.2338	67.	-0.2405	-0.0092	0.2313	897.8437	0.094569	-232.050342	-232.043419	-232.042475	-232.080639	24.101
C         -0.04080        1.55550        0.04910
C          0.01410        0.01710       -0.01950
C          0.69090       -0.47910       -1.20830
C          1.25660       -0.87700       -2.20170
C          1.89200       -1.32440       -3.31890
C          2.45520       -1.72340       -4.31010
H          0.96630        1.98020        0.05720
H         -0.57410        1.96400       -0.81310
H         -0.55820        1.87280        0.95900
H          0.52140       -0.37410        0.87210
H         -1.00500       -0.39020        0.00970
H          2.95070       -2.07260       -5.18140
