17
gdb 2178	3.60229	2.86094	1.9743	2.6327	60.09	-0.2374	0.0646	0.302	710.8438	0.148667	-346.86045	-346.853109	-346.852165	-346.891775	27.
C          0.02990        1.56740       -0.03290
C          0.04990        0.05440        0.11560
O          0.53640       -0.54360       -1.09420
C          1.45000       -1.59590       -0.79680
C          1.27800       -1.89180        0.69780
C          0.93540       -0.49930        1.24480
O          2.09000        0.32160        1.36270
H          1.04330        1.95190       -0.15650
H         -0.56590        1.84340       -0.90700
H         -0.41660        2.03420        0.85110
H         -0.97620       -0.30720        0.29350
H          1.22250       -2.45740       -1.43400
H          2.47670       -1.26880       -1.01220
H          0.43940       -2.57590        0.86720
H          2.16900       -2.32440        1.16230
H          0.38490       -0.53770        2.19510
H          2.67770       -0.08360        2.00750
