13
gdb 21803	6.22659	1.1903	1.08071	2.0675	60.32	-0.2612	-0.0419	0.2193	1028.9046	0.09511	-398.601246	-398.594224	-398.59328	-398.634116	24.209
O         -0.41230        1.12820        1.07830
C          0.04230        1.25150       -0.02700
C          1.47020        1.69800       -0.32340
C          1.49380        2.85560       -1.27500
N          1.82230        2.66770       -2.53320
O          1.71230        3.91130       -3.14370
C          1.31790        4.80950       -2.23070
C          1.15530        4.21820       -1.02160
H         -0.56210        1.03880       -0.93650
H          1.96080        1.94020        0.62250
H          1.99210        0.85540       -0.79260
H          1.19890        5.82090       -2.58740
H          0.84840        4.66830       -0.09230
