17
gdb 15807	3.55522	1.28064	1.06921	2.5491	66.04	-0.2473	0.0175	0.2649	1143.1262	0.141521	-401.011428	-401.002799	-401.001855	-401.04582	30.12
C          0.09000        1.37750       -0.13200
C          0.10260       -0.12010        0.17930
N          1.04110       -0.85570       -0.65080
C          0.66340       -1.83400       -1.51200
O         -0.47940       -2.21600       -1.69530
C          1.81050       -2.43880       -2.28990
C          2.61100       -1.61290       -3.20920
O          3.13830       -2.02590       -1.94750
H          1.07690        1.82600        0.02640
H         -0.20170        1.55560       -1.17110
H         -0.62060        1.89590        0.51930
H          0.34530       -0.28340        1.23690
H         -0.87780       -0.56450       -0.00680
H          2.03460       -0.70520       -0.55190
H          1.68370       -3.49640       -2.50820
H          3.07030       -2.07550       -4.08050
H          2.38980       -0.55100       -3.29790
