17
gdb 9133	3.86462	0.89642	0.77092	4.1325	77.94	-0.2659	0.0209	0.2867	1496.202	0.14046	-326.7219	-326.712344	-326.7114	-326.75824	32.521
C          0.04700        1.55170       -0.16030
C         -0.00910        0.04590        0.15590
C         -1.36700       -0.48800        0.15510
C         -2.49810       -0.89910        0.15450
C         -3.86130       -1.43360        0.14280
C         -3.89030       -2.96120       -0.11280
C         -4.56480       -1.11090        1.39750
N         -5.13280       -0.87480        2.37530
H          1.08260        1.90330       -0.14600
H         -0.37380        1.75800       -1.14800
H         -0.52250        2.12440        0.57630
H          0.59660       -0.50760       -0.57280
H          0.44950       -0.14280        1.13470
H         -4.42640       -0.94400       -0.66270
H         -3.35280       -3.48870        0.67770
H         -4.92150       -3.32130       -0.14160
H         -3.40760       -3.17520       -1.06860
