15
gdb 10586	2.96974	1.74695	1.33761	2.886	67.62	-0.2766	-0.0508	0.2258	936.9028	0.117332	-362.680634	-362.672508	-362.671564	-362.712981	29.116
C          0.08810        1.53060        0.04280
C          0.10840        0.02090        0.03150
C          1.34130       -0.76510       -0.20170
C          0.73130       -0.80070        1.20750
C          1.46640       -0.08420        2.29740
O          2.27400        0.78980        2.10100
C          0.01600       -1.97660        1.62120
N         -0.55750       -2.91840        1.97210
H          1.01340        1.94470        0.44510
H         -0.03480        1.89370       -0.98310
H         -0.75130        1.90920        0.63390
H         -0.80980       -0.44180       -0.31930
H          1.29230       -1.68530       -0.77110
H          2.28190       -0.22580       -0.24410
H          1.20910       -0.42060        3.32200
