21
gdb 7435	3.09554	1.46375	1.17803	3.3552	76.85	-0.2338	0.0347	0.2685	1134.8218	0.186653	-366.299438	-366.289066	-366.288122	-366.334952	36.093
C         -0.42730        1.44440        0.00660
C         -0.00850       -0.03900        0.03250
C         -1.20240       -0.94210        0.36370
C          0.56590       -0.42740       -1.33930
O         -0.16010       -0.91800       -2.19110
N          1.89660       -0.18240       -1.58950
C          2.44150       -0.54200       -2.88900
C          2.84920        0.42540       -0.68220
H          0.41870        2.11170       -0.18550
H         -1.16990        1.61080       -0.78010
H         -0.87440        1.73280        0.96310
H          0.74780       -0.17800        0.81150
H         -1.96390       -0.86650       -0.41500
H         -0.90080       -1.99130        0.42900
H         -1.64110       -0.65020        1.32320
H          2.81320        0.34780       -3.41350
H          3.27840       -1.24260       -2.77350
H          1.65170       -1.00650       -3.47590
H          2.37570        0.75750        0.23800
H          3.65170       -0.27940       -0.42320
H          3.31750        1.29970       -1.15390
