14
gdb 3051	9.34623	1.25717	1.1802	2.4315	55.7	-0.2553	0.0268	0.2822	960.07	0.1133	-361.711854	-361.704617	-361.703673	-361.744375	24.551
O         -0.11560        0.33330        0.70640
C          0.04790        1.28240       -0.03070
N          1.23010        1.63820       -0.60210
C          2.47290        0.92460       -0.36450
C          3.51940        1.83290        0.23240
C          4.92840        1.75600       -0.16620
O          4.08460        2.79380       -0.66920
H         -0.77020        1.96970       -0.32260
H          1.26230        2.46300       -1.18070
H          2.23440        0.10400        0.31710
H          2.85260        0.49920       -1.30140
H          3.27800        2.23800        1.21570
H          5.70280        2.07670        0.52840
H          5.24060        1.01190       -0.89790
