16
gdb 3139	5.52942	2.01665	1.77633	1.6216	60.2	-0.2365	0.0631	0.2996	746.9279	0.1375	-325.721867	-325.715062	-325.714117	-325.752653	25.42
O          0.23640        1.33430        0.12080
C          0.03040       -0.04190       -0.17210
C         -1.41550       -0.43160       -0.06170
C         -2.02240       -0.93540        1.19210
N         -1.86310       -1.88060        0.07040
C         -2.99670       -1.56280       -0.87400
C         -2.50430       -0.10830       -1.08650
H         -0.08470        1.48890        1.01560
H          0.38480       -0.17960       -1.19940
H          0.63260       -0.69890        0.47450
H         -1.35940       -1.15590        2.02430
H         -3.02510       -0.62430        1.48140
H         -2.92670       -2.19140       -1.76340
H         -3.98520       -1.69530       -0.42180
H         -3.18510        0.71080       -0.83930
H         -2.10390        0.06120       -2.08830
