13
gdb 8778	3.16167	1.66296	1.09782	5.7102	64.88	-0.266	-0.1048	0.1612	1008.5637	0.093809	-394.802034	-394.793418	-394.792474	-394.835361	29.433
C          0.08190        1.39640        0.04740
N          0.02640       -0.05140        0.04610
C         -1.12200       -0.60640       -0.04600
N         -2.35830       -0.04720       -0.17510
C         -1.14210       -2.10440       -0.04060
O         -2.16330       -2.75050       -0.07760
C          0.17170       -2.76160        0.02250
N          1.14560       -3.38270        0.06770
H          1.12190        1.72310        0.09940
H         -0.36970        1.82280       -0.86160
H         -0.45000        1.82590        0.91160
H         -2.49850        0.92350        0.04410
H         -3.14810       -0.66840       -0.08860
