10
gdb 3930	8.56693	2.25918	1.78774	3.2492	51.55	-0.2951	-0.0701	0.225	630.5913	0.068808	-355.508682	-355.503415	-355.502471	-355.537916	18.265
O         -0.06230        0.00220       -0.00110
C          0.02180        1.19210        0.00770
N          1.24790        1.90080       -0.00040
N          2.45930        1.32690       -0.01830
C          3.28340        2.35990       -0.01950
C          2.52550        3.55790       -0.00170
N          1.24260        3.24680        0.01010
H         -0.81180        1.91160        0.02210
H          4.35270        2.21770       -0.03250
H          2.85210        4.58590        0.00260
