14
gdb 1907	5.94592	2.23038	1.91951	3.9568	58.22	-0.2431	0.0119	0.2549	684.8097	0.113757	-324.576206	-324.569924	-324.56898	-324.606	24.02
C          0.01900        1.54610        0.04430
C          0.05400        0.04930        0.02950
C         -0.86490       -0.87150        0.77030
C          0.64810       -0.93890        1.02430
C          1.26210       -1.63800       -0.17620
O          1.92460       -2.61650       -0.37140
N          0.73630       -0.67220       -1.06150
H          1.01250        1.95840       -0.15480
H         -0.66750        1.93210       -0.71820
H         -0.32630        1.91370        1.01490
H         -1.43630       -0.43560        1.58570
H         -1.36260       -1.68980        0.25760
H          1.08540       -0.77260        1.99860
H          0.28490       -0.92280       -1.93540
