20
gdb 15403	4.2677	0.90651	0.80037	3.4136	77.61	-0.244	-0.0153	0.2286	1458.6296	0.175633	-349.011479	-349.002335	-349.001391	-349.045939	32.733
C         -0.18050        1.55040        0.07700
C         -0.17520        0.03010       -0.10130
C          0.89750       -0.45170       -1.08850
C          0.90440       -1.96100       -1.23520
C          0.06480       -2.66280       -2.24820
C          1.58430       -2.69410       -2.39600
C          2.20400       -1.95900       -3.51890
O          3.21870       -2.29870       -4.07830
H          0.78500        1.90820        0.45120
H         -0.37520        2.06040       -0.87300
H         -0.95080        1.86560        0.78740
H         -0.01310       -0.45410        0.87080
H         -1.16020       -0.30740       -0.44750
H          0.72880        0.02700       -2.06040
H          1.88440       -0.11130       -0.74770
H          1.02740       -2.48520       -0.29000
H         -0.42670       -3.59530       -1.99640
H         -0.47760       -2.04950       -2.96240
H          2.09580       -3.61910       -2.15280
H          1.65260       -1.04730       -3.84500
