17
gdb 11874	4.39591	1.66172	1.38174	3.0638	70.1	-0.2442	0.0306	0.2748	922.598	0.143436	-363.874942	-363.86792	-363.866976	-363.9062	27.445
N         -0.07140        1.17540        0.44060
C         -0.02900        0.01540       -0.05390
C         -1.13420       -1.01950        0.00060
C         -0.74720       -1.99710       -1.11980
C          0.76250       -1.83710       -1.15070
C          1.73560       -2.89570       -0.71820
C          1.68390       -2.42150       -2.16390
O          1.04160       -0.50190       -0.73480
H          0.81000        1.66600        0.27910
H         -1.10830       -1.50890        0.98070
H         -2.11360       -0.55500       -0.11290
H         -1.05560       -3.02730       -0.93290
H         -1.18070       -1.67830       -2.07430
H          2.58240       -2.57430       -0.12270
H          1.35520       -3.88370       -0.48100
H          1.26570       -3.08250       -2.91580
H          2.49760       -1.79480       -2.51070
