16
gdb 10377	2.78848	1.93266	1.41636	2.1733	71.54	-0.2507	-0.0301	0.2206	916.4734	0.128463	-346.568372	-346.560251	-346.559307	-346.601034	29.705
O         -0.11920        0.07840       -0.36490
C          0.03420        1.18510        0.07950
C          1.34910        1.95920        0.03980
C          2.51630        1.12760       -0.58010
C          2.21200        1.75540       -1.96500
C          1.36330        2.84990       -1.27070
C          1.55620        2.63880        1.30180
C          1.70820        3.19590        2.35720
H         -0.80500        1.75440        0.53510
H          3.47960        1.43790       -0.17270
H          2.40180        0.04720       -0.48760
H          3.06520        2.10290       -2.54970
H          1.60490        1.09410       -2.58640
H          0.38860        3.09820       -1.69910
H          1.91530        3.77380       -1.08950
H          1.85610        3.68880        3.28630
