17
gdb 18134	3.30864	1.95056	1.53678	1.6699	73.7	-0.229	0.0311	0.26	875.6619	0.14167	-326.641446	-326.633832	-326.632888	-326.672901	29.474
C         -0.41530        1.43800       -0.08290
C         -0.02950       -0.02300       -0.07790
C          0.62320       -0.76060       -1.17690
C          1.66000        0.08260       -1.91390
C          2.37190        0.24550       -0.53660
C          2.68940        1.55970       -0.00990
C          2.99860        2.64000        0.41930
N          1.31860       -0.58810        0.17720
H          0.21870        2.05440       -0.72060
H         -1.44800        1.53110       -0.43730
H         -0.36800        1.85270        0.92870
H         -0.74230       -0.63520        0.47350
H          0.28180       -1.73570       -1.51010
H          2.26330       -0.47960       -2.62760
H          1.29490        0.99120       -2.39880
H          3.28410       -0.35850       -0.51890
H          3.25950        3.59500        0.80380
