16
gdb 2691	9.32709	1.0204	0.96464	2.6277	62.32	-0.2554	0.0191	0.2745	1201.8264	0.13495	-362.899954	-362.891472	-362.890528	-362.933845	28.43
C          0.02280        1.30710        0.12310
N          0.02610       -0.12060       -0.11680
C         -1.05720       -0.73680        0.04130
O         -1.12260       -2.07140       -0.15430
C         -2.40700       -2.68240        0.00410
C         -2.16080       -4.18130        0.06400
O         -1.34320       -4.53180        1.15940
H          0.74760        1.54940        0.90860
H          0.34840        1.83210       -0.78210
H         -0.95870        1.71010        0.42260
H         -2.01010       -0.27520        0.34450
H         -2.87350       -2.33990        0.93650
H         -3.05960       -2.42480       -0.84120
H         -3.11660       -4.69900        0.19460
H         -1.72600       -4.51120       -0.89230
H         -0.53510       -4.01270        1.07230
