15
gdb 2231	4.73868	2.80991	2.20635	1.3468	61.35	-0.2267	0.0207	0.2474	633.4838	0.125898	-308.509272	-308.503236	-308.502292	-308.538578	24.263
O         -0.05380        1.38310        0.03970
C         -0.00770       -0.01230        0.04460
C         -0.39770       -0.76090       -1.20160
C         -1.30180       -0.79530        0.02990
C         -1.07960       -1.94270        0.95570
C          0.14630       -1.91690        1.48620
C          0.93150       -0.70160        1.03990
H          0.67200        1.70310       -0.50690
H         -0.73960       -0.14570       -2.02780
H          0.12980       -1.66820       -1.47980
H         -2.26160       -0.29530       -0.02970
H         -1.82760       -2.70610        1.13740
H          0.55790       -2.66230        2.15700
H          1.89990       -0.96650        0.59640
H          1.14090       -0.02290        1.87790
