17
gdb 4110	2.94275	1.84486	1.19361	1.5792	67.24	-0.2482	0.0017	0.25	987.7314	0.142191	-400.973483	-400.965489	-400.964545	-401.005869	29.942
O         -0.12330        1.28290       -0.33800
N         -0.03380       -0.11640       -0.28360
C         -1.13280       -0.65290        0.05690
C         -2.47410       -0.02330        0.33900
C         -3.41200       -1.23520        0.56500
C         -2.72300       -2.40240       -0.17100
C         -1.23140       -2.16660        0.11250
O         -0.37230       -2.83800       -0.77600
H          0.76180        1.53760       -0.62040
H         -2.43430        0.67130        1.18340
H         -2.77230        0.57260       -0.53190
H         -3.48150       -1.45920        1.63530
H         -4.42840       -1.05210        0.20960
H         -3.06650       -3.38670        0.15490
H         -2.87980       -2.32930       -1.25340
H         -1.02200       -2.48110        1.15250
H          0.36990       -2.24220       -0.93920
