10
gdb 93	11.54185	4.90368	3.63309	2.5257	39.34	-0.2437	-0.0258	0.2179	359.152	0.07965	-247.190194	-247.185543	-247.184599	-247.217688	16.083
O          0.00050        0.00670       -0.09740
C         -0.01370        1.19210        0.03140
C         -1.10670        2.26610        0.17250
N         -0.03540        3.25120        0.48530
C          1.05330        2.29520        0.14380
H         -1.65050        2.42800       -0.76890
H         -1.83610        2.11370        0.97570
H         -0.05430        4.07190       -0.10730
H          1.80750        2.16280        0.92740
H          1.56740        2.47130       -0.81150
