14
gdb 13156	4.27759	1.47895	1.23182	2.7962	63.38	-0.2508	-0.0914	0.1594	952.3364	0.1075	-378.712561	-378.704992	-378.704048	-378.745201	26.289
O          0.07050       -0.11110        0.14440
C         -0.00850        1.08870        0.05010
C          1.20970        1.92510       -0.01580
N          2.14070        2.60820       -0.07920
C         -1.30790        1.86220       -0.01140
C         -1.66120        2.35020       -1.45470
C         -2.67150        1.17540       -1.47450
N         -2.51300        1.02950       -0.00230
H         -1.26880        2.64470        0.75930
H         -2.12640        3.33590       -1.44960
H         -0.85840        2.33460       -2.19280
H         -3.69290        1.41010       -1.78700
H         -2.31070        0.31730       -2.05390
H         -2.34000        0.08090        0.31740
