14
gdb 13048	4.15104	1.44154	1.12946	3.6351	61.11	-0.2512	0.0071	0.2583	1002.7058	0.107175	-415.864587	-415.856831	-415.855887	-415.897615	26.646
N         -0.02200        1.22400        0.01970
C         -0.11960       -0.00840       -0.22340
O         -1.05120       -0.73910        0.44400
C         -1.04160       -2.12590        0.19310
C         -2.34150       -2.83320        0.65460
N         -2.51510       -3.26750       -0.73810
C         -1.44490       -2.58100       -1.24690
O         -1.01640       -2.40020       -2.35460
H          0.70540        1.63390       -0.56280
H          0.46190       -0.59180       -0.94510
H         -0.11980       -2.59370        0.55620
H         -2.21440       -3.64880        1.37110
H         -3.09900       -2.12810        1.00610
H         -3.25910       -3.77340       -1.19540
