17
gdb 13861	4.40447	1.35369	1.2511	3.3477	64.39	-0.2457	0.0258	0.2716	1004.0633	0.143632	-401.038459	-401.030239	-401.029295	-401.072767	28.872
N          0.07410        1.28800       -0.36370
C         -0.00200        0.08830        0.28100
O          0.91520       -0.35160        0.94920
C         -1.33570       -0.63870        0.15010
C         -1.17460       -2.16160       -0.08550
C         -2.18600       -2.80140        0.90090
O         -2.97860       -1.73810        1.41580
C         -2.13360       -0.60820        1.47650
H          0.93640        1.80540       -0.30960
H         -0.65700        1.62470       -0.96420
H         -1.94820       -0.19310       -0.63970
H         -1.38990       -2.42620       -1.12290
H         -0.15210       -2.46510        0.14510
H         -2.86180       -3.52110        0.43170
H         -1.65380       -3.30970        1.71860
H         -1.43230       -0.67260        2.32330
H         -2.75950        0.27980        1.59530
