12
gdb 21419	3.35236	2.47059	1.42236	4.1659	61.22	-0.2261	-0.0401	0.186	785.357	0.086691	-410.863551	-410.857148	-410.856204	-410.894307	23.891
N         -0.05270        1.25460        0.37980
C         -0.00470        0.03010        0.03140
N          1.13310       -0.69750       -0.29510
N          1.22400       -2.00840       -0.67290
C          0.11410       -2.64300       -0.73180
N         -1.11060       -2.07770       -0.44180
C         -1.29540       -0.75650       -0.05000
O         -2.38650       -0.30910        0.19370
H          0.87690        1.67980        0.39880
H          2.02600       -0.22970       -0.26010
H          0.12130       -3.68460       -1.02510
H         -1.95440       -2.63050       -0.50520
