12
gdb 21681	7.67757	1.28647	1.10319	5.4519	61.42	-0.2487	-0.078	0.1706	981.4036	0.084189	-414.658611	-414.651748	-414.650804	-414.689764	24.829
N         -0.00480        1.39250        0.14900
C          0.03470        0.01720        0.04010
N         -1.07540       -0.69810        0.00720
O         -0.67570       -2.02860       -0.01410
C          0.66510       -2.07940       -0.01040
C          1.33910       -3.38480       -0.03610
O          0.77830       -4.45210       -0.06130
C          1.18770       -0.82000        0.02430
H          0.73210        1.87820       -0.34050
H         -0.91630        1.78260       -0.04950
H          2.44650       -3.29640       -0.03020
H          2.22630       -0.53300        0.04810
