13
gdb 5295	5.16785	1.54323	1.19813	3.0276	60.58	-0.2399	-0.0209	0.219	921.7988	0.097114	-398.659452	-398.652618	-398.651674	-398.690883	25.297
N         -0.04580        1.35370        0.00330
C          0.02760       -0.01460       -0.12930
O          1.07910       -0.59330       -0.32980
C         -1.26360       -0.73710       -0.05260
C         -2.54000       -0.25740       -0.12300
O         -3.43460       -1.26710       -0.03950
C         -2.71840       -2.42380        0.08550
C         -1.39020       -2.16260        0.07720
H          0.84190        1.82540        0.08630
H         -0.81830        1.76480        0.50120
H         -2.95810        0.72630       -0.26220
H         -3.30380       -3.32420        0.16620
H         -0.57440       -2.86250        0.15140
