14
gdb 19679	4.78166	1.87268	1.74869	4.4575	64.3	-0.2631	0.0061	0.2693	760.8489	0.109175	-341.523983	-341.518034	-341.51709	-341.55402	23.186
N         -0.03150       -1.18230       -0.00070
C         -0.00990       -0.02690        0.02550
C          0.00490        1.43430        0.08110
C         -0.26610        2.14990        1.42390
C          0.80620        1.53740        2.36370
C          1.82680        2.19040        1.43450
C          0.83550        3.16590        0.92910
N          1.34710        2.11100        0.00310
H         -0.60850        1.83240       -0.73140
H         -1.27720        2.35680        1.76530
H          0.80480        2.03290        3.33730
H          0.81350        0.45150        2.49240
H          2.89610        2.29570        1.55490
H          0.85490        4.22510        0.71340
