17
gdb 10715	2.55029	2.15649	1.34736	4.6717	64.62	-0.2496	0.0165	0.2661	928.167	0.141766	-401.019714	-401.011076	-401.010131	-401.053123	31.584
N          1.06050       -1.09260        0.65220
C         -0.08660       -0.36510        0.75620
O         -0.10000        0.70220        1.35890
C         -1.32450       -0.88900        0.08050
C         -2.57570       -0.10350        0.45520
O         -2.50780        1.25190        0.07800
C         -1.20380       -1.40110       -1.34560
C         -1.48660       -2.36390       -0.23290
H          1.87820       -0.73470        1.11740
H          1.09680       -2.01550        0.25990
H         -3.43740       -0.53810       -0.06400
H         -2.75250       -0.21400        1.53690
H         -1.73820        1.59540        0.55530
H         -2.00740       -1.13830       -2.02460
H         -0.21880       -1.40520       -1.79880
H         -0.71700       -3.06170        0.08020
H         -2.48980       -2.76780       -0.14360
