20
gdb 9691	3.92056	1.25435	1.20242	0.7472	72.23	-0.2346	0.0853	0.3199	1125.7567	0.173751	-386.103651	-386.094011	-386.093066	-386.137713	34.526
C         -0.00600        1.09970        0.30470
O         -0.23280       -0.00560       -0.55030
C         -1.37850       -0.71940       -0.21410
C         -1.49570       -2.11370       -0.76060
C         -1.30910       -1.88980        0.73360
C          0.00230       -2.26930        1.38340
O         -2.45210       -2.01380        1.53590
C         -2.85040       -3.34710        1.78910
H          0.89450        1.60370       -0.05400
H         -0.84730        1.80800        0.27530
H          0.14610        0.78650        1.34680
H         -2.29210       -0.12550       -0.15790
H         -2.46840       -2.43190       -1.11820
H         -0.64760       -2.49230       -1.32110
H          0.83700       -1.92700        0.76770
H          0.08310       -1.80290        2.37090
H          0.09700       -3.35290        1.51040
H         -3.79720       -3.29710        2.33250
H         -3.00240       -3.90990        0.85680
H         -2.12110       -3.88990        2.40640
