19
gdb 16913	3.67284	1.78616	1.38106	2.3716	70.55	-0.2171	0.0712	0.2882	929.5826	0.1676	-365.039465	-365.032102	-365.031158	-365.07083	29.073
O         -0.10010        1.44760        0.03650
C          0.03780        0.03340        0.01010
C          0.76170       -0.51870        1.23820
C          0.90770       -2.03960        1.10140
C         -0.39850       -2.72170        0.72850
C         -1.65620       -2.47050        1.47750
N         -1.50760       -1.97710        0.10800
C         -1.38720       -0.52070       -0.07700
H          0.78160        1.83340        0.02160
H          0.59660       -0.27890       -0.88890
H          1.75300       -0.05790        1.33120
H          0.20110       -0.24320        2.13950
H          1.64110       -2.25010        0.31210
H          1.31100       -2.48190        2.02000
H         -0.26640       -3.71280        0.29600
H         -2.38610       -3.26460        1.61730
H         -1.62810       -1.74310        2.28770
H         -1.99000        0.00610        0.67290
H         -1.80720       -0.26620       -1.05580
