18
gdb 18710	3.31701	2.15945	1.50676	1.7533	72.06	-0.2382	0.0029	0.241	875.3024	0.155117	-347.804615	-347.797494	-347.79655	-347.83565	28.022
C          0.11460        1.55960        0.03930
C          0.01210        0.02910        0.00990
C          0.60200       -0.54690       -1.29820
C          0.79020       -2.04070       -1.26600
C          1.07140       -2.69350       -0.13710
C          1.18620       -1.96630        1.15040
O          2.06860       -0.81470        1.18620
C          0.66070       -0.59320        1.23120
H          1.16370        1.87370        0.04360
H         -0.36870        2.00390       -0.83690
H         -0.36430        1.97450        0.93240
H         -1.05050       -0.25190        0.05770
H         -0.03890       -0.26070       -2.13930
H          1.57470       -0.07070       -1.48090
H          0.72230       -2.58090       -2.20640
H          1.21960       -3.76890       -0.12800
H          1.22980       -2.56590        2.05740
H          0.29150       -0.23320        2.19390
