13
gdb 2901	7.02069	2.01523	1.6061	2.5843	57.17	-0.2324	-0.0685	0.1639	730.5308	0.103507	-340.655601	-340.649369	-340.648424	-340.685833	22.152
O         -0.83100        1.23250       -0.14470
C          0.28140        0.87310        0.15950
C          1.44960        1.78990        0.15860
N          2.64060        1.37260        0.39470
C          3.50170        2.56580        0.28250
C          2.61790        3.67070       -0.36660
N          1.27910        3.13260       -0.09790
H          0.52860       -0.16720        0.44290
H          3.82670        2.85510        1.29060
H          4.40160        2.33860       -0.29480
H          2.75680        4.65390        0.08970
H          2.80680        3.76100       -1.44560
H          0.48120        3.40990       -0.65010
