19
gdb 13513	3.17988	1.72943	1.21597	3.6559	73.3	-0.232	0.0326	0.2645	1034.0993	0.16443	-365.092339	-365.083314	-365.08237	-365.126536	31.691
C         -0.38270        1.40100        0.18360
C          0.07680       -0.03160       -0.03440
C          0.97260       -0.33870       -1.27400
C          2.03850       -0.91560       -0.30080
N          1.19340       -0.47830        0.81470
C          1.15460       -0.80180        2.13600
C          2.40230       -1.48800        2.67010
O          0.18300       -0.54460        2.82870
H          0.45770        2.09770        0.09690
H         -1.13780        1.67410       -0.56150
H         -0.81940        1.50430        1.17960
H         -0.78050       -0.71110        0.05430
H          0.56090       -1.04830       -1.99200
H          1.30070        0.55770       -1.80340
H          2.16790       -2.00340       -0.36010
H          3.02760       -0.44550       -0.33490
H          3.31220       -0.95300        2.38100
H          2.33380       -1.53750        3.75650
H          2.47980       -2.50680        2.27350
