18
gdb 2372	4.15323	1.87865	1.49554	2.2061	64.28	-0.2434	0.073	0.3164	877.0549	0.158722	-326.952955	-326.944489	-326.943545	-326.985786	30.473
C         -0.05210        1.49040       -0.22190
C          0.04420        0.02490        0.20200
O          0.70590       -0.12220        1.45760
C         -1.32060       -0.63510        0.23120
N         -1.86010       -1.11390       -1.05330
C         -1.55220       -2.08720        0.01270
C         -0.46150       -3.09640       -0.25350
H          0.93940        1.95090       -0.23620
H         -0.49650        1.57240       -1.21830
H         -0.68240        2.05710        0.47630
H          0.67630       -0.50830       -0.51340
H          0.21700        0.39410        2.10790
H         -2.02020       -0.13990        0.90920
H         -2.85970       -0.94180       -1.11080
H         -2.40680       -2.49580        0.55210
H          0.33480       -2.67030       -0.86690
H         -0.02330       -3.44840        0.68610
H         -0.86480       -3.96280       -0.78860
