20
gdb 15727	3.32011	1.51881	1.21912	1.505	70.41	-0.2563	0.0684	0.3247	1048.4048	0.177719	-386.147281	-386.138483	-386.137539	-386.18156	32.173
O         -0.15030        1.45050        0.15450
C          0.03210        0.04020        0.07810
C         -1.34750       -0.59480        0.00030
C         -2.16140       -0.21780       -1.26490
C         -3.02870       -1.46390       -1.60570
C         -2.75720       -2.47620       -0.46990
C         -1.34130       -2.13060        0.00820
O         -0.35120       -2.56210       -0.92670
H          0.71540        1.86520        0.10100
H          0.61590       -0.24270       -0.80790
H          0.56990       -0.33680        0.96360
H         -1.90490       -0.27480        0.88990
H         -2.76500        0.67500       -1.08960
H         -1.48460        0.01940       -2.09070
H         -4.09220       -1.22550       -1.69100
H         -2.71980       -1.88770       -2.56480
H         -3.45890       -2.33060        0.36040
H         -2.84770       -3.52160       -0.78620
H         -1.12190       -2.53770        1.00660
H         -0.42940       -3.51640       -1.02080
