15
gdb 15560	3.51143	1.9336	1.36674	1.6922	61.	-0.2474	-0.035	0.2124	871.291	0.118415	-399.82133	-399.813774	-399.81283	-399.854092	26.636
C          0.14260        1.69710       -0.07740
C          0.14940        0.17950       -0.00340
O          0.95510       -0.34160       -1.10660
C          1.95580       -1.04630       -0.54470
N          2.00470       -1.19650        0.71370
C          0.82540       -0.49270        1.24170
C          1.21690        0.41920        2.39930
O          0.48740        1.24370        2.88650
H          1.15280        2.10230        0.03390
H         -0.25230        2.01480       -1.04580
H         -0.47920        2.11010        0.71890
H         -0.86120       -0.20880       -0.15030
H          2.67590       -1.44680       -1.25000
H          0.14250       -1.23220        1.68500
H          2.24150        0.23180        2.78560
