18
gdb 11784	4.11533	1.77293	1.62741	1.6035	71.29	-0.2316	0.0033	0.235	878.082	0.153937	-347.762674	-347.755503	-347.754559	-347.793902	28.402
C          0.01510        1.54110        0.20860
C         -0.00010        0.03210       -0.06400
C         -1.39300       -0.54120       -0.07100
C         -1.73620       -2.06530        0.04140
C         -3.02020       -1.38420        0.59650
O         -2.15460       -0.36000        1.18150
C         -3.55390       -0.66600       -0.65920
C         -2.44330       -0.08830       -1.11730
H          1.03980        1.92240        0.23820
H         -0.52710        2.09220       -0.56650
H         -0.46300        1.76020        1.16700
H          0.46880       -0.18820       -1.03160
H          0.58980       -0.48910        0.69820
H         -1.80660       -2.65910       -0.87240
H         -1.15230       -2.56670        0.81790
H         -3.70820       -1.85360        1.29800
H         -4.56410       -0.67110       -1.04120
H         -2.26850        0.52630       -1.98850
