18
gdb 14519	3.80248	1.76955	1.49602	2.3896	67.48	-0.2544	0.0633	0.3177	891.5307	0.154359	-384.875979	-384.868544	-384.8676	-384.907394	29.502
O          0.75980       -0.35260        1.30400
C          0.14380       -0.01200        0.07600
C         -1.27650       -0.56660        0.00800
O         -1.90560        0.04740        1.12500
C         -2.05050       -0.63180       -1.35590
C         -1.14950       -1.84710       -1.73040
C         -1.55080       -2.08690       -0.24630
C         -2.99510       -1.67760       -0.68890
H          0.11530       -0.11340        1.98120
H          0.08290        1.08130       -0.05280
H          0.78440       -0.40180       -0.71490
H         -2.67440       -0.46510        1.38720
H         -2.33970        0.20290       -1.99600
H         -1.58880       -2.54500       -2.44630
H         -0.10000       -1.66940       -1.95950
H         -1.26260       -2.92430        0.39050
H         -3.70410       -1.32290        0.06380
H         -3.49640       -2.37070       -1.36840
