17
gdb 6201	3.85442	1.56195	1.46939	3.6084	65.33	-0.2569	0.0293	0.2863	920.121	0.142022	-401.023415	-401.015562	-401.014618	-401.055303	29.957
C          0.38580        1.38540        0.05930
C         -0.11370       -0.05830       -0.01540
O         -1.52980       -0.11020       -0.08820
C          0.55610       -0.83660       -1.17510
O          1.77260       -1.37050       -0.63760
C          1.68820       -1.45080        0.73010
N          2.59760       -1.90830        1.47440
C          0.35700       -0.89860        1.18060
H          1.47720        1.42120        0.13030
H          0.09420        1.94430       -0.83860
H         -0.03620        1.88880        0.93360
H         -1.82600        0.55740       -0.71560
H         -0.10400       -1.65110       -1.49640
H          0.81300       -0.21600       -2.03850
H          3.38880       -2.23020        0.91360
H          0.44680       -0.34820        2.11730
H         -0.35180       -1.71960        1.33360
