16
gdb 20249	3.60686	3.04185	2.42772	1.8568	65.44	-0.234	0.0752	0.3092	646.4239	0.134063	-346.558466	-346.553449	-346.552504	-346.58719	22.075
C         -0.02340        1.51660       -0.04560
C          1.45590        1.87320        0.03840
C          2.46470        0.92570       -0.59530
C          2.18990        0.90080        0.91420
C          1.36490       -0.39150        0.70900
C          0.00970       -0.00940        0.00300
O          0.49680       -0.50040       -1.28090
C          1.83570       -0.47860       -0.75320
H         -0.56380        1.93630        0.81220
H         -0.51040        1.85480       -0.96470
H          1.75570        2.91570        0.05980
H          3.32710        1.30590       -1.12940
H          2.83250        1.15050        1.74740
H          1.40040       -1.22410        1.40590
H         -0.92090       -0.50050        0.29470
H          2.48150       -1.26020       -1.15750
