16
gdb 17214	4.44378	1.8247	1.56977	1.9049	64.05	-0.2427	0.0518	0.2945	831.7857	0.130707	-383.674808	-383.668186	-383.667242	-383.705799	25.415
C         -0.36020        1.38080        0.01050
O          0.99850        0.91310        0.00040
C         -0.04360       -0.04460        0.03500
C         -0.17370       -1.10460        1.14210
C         -0.45850       -2.17250        0.04790
C         -1.90940       -2.22040       -0.46560
O         -1.65870       -1.18730       -1.45060
C         -0.27430       -1.09160       -1.06140
H         -0.67260        1.87860        0.92760
H         -0.70560        1.84070       -0.91390
H          0.77900       -1.26430        1.65420
H         -0.95660       -0.95080        1.89020
H          0.09590       -3.10760        0.09290
H         -2.19600       -3.16170       -0.94970
H         -2.68930       -1.93450        0.25170
H          0.41990       -1.12250       -1.90510
