15
gdb 8020	3.37141	2.13202	1.58743	5.1998	60.75	-0.2383	0.0028	0.2411	819.0905	0.119033	-399.79434	-399.787329	-399.786385	-399.825415	26.462
C         -0.15980        1.58160        0.02630
C          0.05110        0.09690        0.09900
C         -1.12850       -0.89970        0.18180
N         -0.36130       -1.74980        1.13980
C          0.72730       -0.73710        1.21780
C          1.77600       -1.04400        0.13890
O          2.80350       -1.62630        0.02540
O          1.08160       -0.36420       -0.84430
H          0.78780        2.11430        0.14550
H         -0.58580        1.85920       -0.94390
H         -0.84940        1.91190        0.80860
H         -2.02790       -0.44250        0.61020
H         -1.38870       -1.40400       -0.75340
H         -0.83300       -1.88660        2.02470
H          1.05070       -0.38960        2.19860
