16
gdb 18980	4.39802	2.32586	1.91677	1.5018	63.25	-0.2484	0.1025	0.3508	722.6149	0.133694	-383.687635	-383.682124	-383.68118	-383.716944	23.021
C         -0.04080        1.59070        0.00990
C          1.47010        1.25410       -0.00570
C          1.15580        0.15080        1.04790
O          2.07050       -0.91640        1.14490
C          2.05350       -1.69470       -0.02680
O          2.04910       -0.90390       -1.19020
C          1.13650        0.16220       -1.06520
C         -0.00680        0.04250        0.00130
H         -0.42660        2.05900        0.91870
H         -0.44300        2.06870       -0.88660
H          2.31680        1.93990       -0.00980
H          0.90370        0.47480        2.06010
H          2.95960       -2.30410       -0.03840
H          1.16050       -2.34290       -0.02220
H          0.86600        0.49690       -2.06910
H         -0.86220       -0.63350        0.00550
