14
gdb 9089	3.47224	1.31551	1.00442	3.7807	60.	-0.2755	-0.0073	0.2681	1097.9735	0.105636	-415.850388	-415.841728	-415.840784	-415.88464	29.162
O          0.79120        1.46650        0.84940
C          0.16450        0.65540       -0.12140
C          0.79820        0.85770       -1.51560
O          0.00400        0.27610       -2.52810
C          0.37530       -0.93640       -3.01360
N         -0.34160       -1.50060       -3.87930
C          0.18290       -0.76920        0.26220
N          0.26320       -1.88270        0.56120
H          1.66420        1.10470        1.04150
H         -0.87770        0.98540       -0.17510
H          0.83870        1.93390       -1.70060
H          1.82220        0.46060       -1.52640
H          1.31410       -1.30840       -2.58310
H          0.07070       -2.39050       -4.15060
