17
gdb 2686	11.33201	0.7931	0.7551	1.2395	69.68	-0.2409	0.0626	0.3035	1480.7669	0.145999	-309.693494	-309.684126	-309.683182	-309.729923	30.645
C         -0.00930        1.48420        0.01020
C          0.00370        0.02790        0.00230
C          0.02330       -1.17600       -0.00430
C          0.01400       -2.63490       -0.01200
C         -1.40770       -3.22850       -0.00190
C         -1.39660       -4.75120       -0.01020
O         -2.74390       -5.19620        0.00010
H          1.00770        1.89220        0.00290
H         -0.53100        1.88390       -0.86660
H         -0.51470        1.87460        0.90060
H          0.55550       -3.00080       -0.89540
H          0.57180       -3.01010        0.85720
H         -1.94810       -2.88010        0.88420
H         -1.96460       -2.87060       -0.87390
H         -0.86250       -5.11490       -0.90410
H         -0.84580       -5.12440        0.86960
H         -2.74340       -6.15770       -0.00530
