11
gdb 512	21.9297	1.34235	1.28507	5.2846	59.94	-0.2842	-0.0374	0.2468	871.1625	0.084479	-248.151318	-248.144801	-248.143857	-248.18147	21.754
C          0.01470        1.55620        0.01030
C         -0.02420        0.01530        0.00240
C         -1.37600       -0.51910        0.01240
C         -2.50650       -0.94610        0.02090
C         -3.78220       -1.43160        0.03050
N         -4.86810       -1.84480        0.03860
H          1.05220        1.90040        0.00230
H         -0.49250        1.96280       -0.86800
H         -0.47560        1.95330        0.90240
H          0.49980       -0.36850       -0.88210
H          0.51650       -0.37790        0.87250
