20
gdb 10883	2.75229	1.90361	1.62436	1.8714	75.54	-0.2301	0.0917	0.3217	946.5479	0.17524	-348.952326	-348.943814	-348.94287	-348.984544	32.644
C         -0.18200        1.55010        0.81120
C         -0.13830        0.06690        0.49260
C          1.04790       -0.49230       -0.33620
O          1.94590       -0.23550        0.81220
C          0.72900       -0.87430        1.39210
C          0.68530       -1.08920        2.87320
C          0.80910       -1.91780        0.23170
C         -0.34330       -2.82030       -0.17930
H          0.81390        1.91640        1.06780
H         -0.55410        2.12190       -0.04610
H         -0.85610        1.75050        1.65170
H         -1.12600       -0.31900        0.22630
H          1.40600       -0.19110       -1.32220
H          0.72260       -0.13380        3.40580
H         -0.23910       -1.60420        3.15450
H          1.53390       -1.69930        3.19760
H          1.75150       -2.47080        0.28310
H         -1.30240       -2.30140       -0.24930
H         -0.14120       -3.27430       -1.15570
H         -0.46090       -3.63890        0.53950
