17
gdb 3157	3.94397	2.62189	1.91641	1.7269	64.09	-0.2234	0.0832	0.3067	731.2122	0.14773	-309.686189	-309.679072	-309.678127	-309.717384	26.61
C         -0.26640        1.46870        0.04960
C          0.02390       -0.02250       -0.03550
C          1.30940       -0.46080       -0.77710
O          1.82190       -1.12450        0.40040
C          0.69210       -0.69980        1.16430
C          0.83380       -0.23450        2.57720
C          0.12220       -1.54370        2.25270
H          0.61320        2.02190        0.39420
H         -0.55650        1.86670       -0.92880
H         -1.08700        1.67540        0.74520
H         -0.86220       -0.56510       -0.37870
H          1.17840       -1.15780       -1.61230
H          1.96060        0.36450       -1.09330
H          1.82230       -0.30110        3.01920
H          0.24120        0.61030        2.91410
H         -0.95670       -1.59120        2.36520
H          0.64450       -2.46560        2.48500
