15
gdb 11262	5.07608	1.40958	1.18595	1.6275	70.73	-0.2453	-0.0279	0.2174	1004.8771	0.118297	-362.648619	-362.640954	-362.64001	-362.681026	27.901
C         -0.27000        1.53190       -0.05520
C          0.07340        0.05460        0.04450
C          0.91910       -0.50460       -1.13390
N          2.19370       -0.92300       -0.53850
C          2.08750       -0.69710        0.71080
O          0.93260       -0.16490        1.19790
C          3.09670       -0.95770        1.68270
C          3.94000       -1.17420        2.51020
H          0.63420        2.12690       -0.21800
H         -0.94980        1.70090       -0.89700
H         -0.75800        1.88320        0.85780
H         -0.83200       -0.53630        0.21520
H          0.44410       -1.36000       -1.62630
H          1.10080        0.25330       -1.90520
H          4.69090       -1.36830        3.23600
