10
gdb 3634	9.99253	1.97623	1.64993	4.0454	58.04	-0.2523	-0.0389	0.2135	676.362	0.068171	-318.323005	-318.317441	-318.316496	-318.352268	20.287
C          0.07500       -1.21350       -0.00500
C          0.00020       -0.01210        0.00270
C         -0.07790        1.39210        0.01160
C         -1.13660        2.28330        0.03040
N         -0.64840        3.54930        0.03120
N          0.65530        3.50730        0.01390
N          1.00960        2.21480        0.00200
H          0.13190       -2.27430       -0.01170
H         -2.19320        2.07340        0.04310
H          1.98460        1.95850       -0.01220
