20
gdb 10079	1.84907	1.81795	0.98264	4.0404	72.7	-0.2743	0.0116	0.2858	1229.4931	0.174445	-386.17921	-386.169301	-386.168357	-386.214895	34.198
C         -0.12500        1.56010        0.23410
C         -0.02440        0.03990        0.09060
C          0.69420       -0.41720       -1.17980
C          0.84450       -1.93650       -1.27060
C          1.61920       -2.41070       -2.50220
O         -0.06920        0.03330       -2.32210
C          0.49390        0.88800       -3.19260
O         -0.07710        1.30240       -4.15710
H          0.86690        2.02600        0.24970
H         -0.69190        1.99920       -0.59150
H         -0.63110        1.82950        1.16550
H          0.51440       -0.38160        0.94770
H         -1.02610       -0.40590        0.09900
H          1.68930        0.05190       -1.22590
H          1.34850       -2.27630       -0.35790
H         -0.15700       -2.38290       -1.26120
H          1.11450       -2.11340       -3.42560
H          2.63280       -1.99430       -2.52070
H          1.70970       -3.50060       -2.50820
H          1.53210        1.16020       -2.91830
