16
gdb 20795	3.17033	1.80275	1.24497	4.0794	67.47	-0.2555	-0.03	0.2255	983.4961	0.129455	-379.920389	-379.912281	-379.911336	-379.953622	28.533
C          0.12360        1.59130       -0.28050
C         -0.00630        0.10200        0.07850
C         -1.42580       -0.35850        0.15950
C         -2.18870       -0.78090        1.20920
C         -1.92770       -0.96580        2.66070
O         -3.41130       -1.07100        0.75140
N         -3.39480       -0.81100       -0.65470
N         -2.24430       -0.40570       -0.95230
H          1.17570        1.87920       -0.36280
H         -0.36520        1.79910       -1.23620
H         -0.34560        2.22190        0.48110
H          0.51920       -0.49890       -0.67290
H          0.48850       -0.09780        1.03510
H         -2.58710       -0.32940        3.25960
H         -2.10930       -2.00290        2.96020
H         -0.89280       -0.71220        2.89800
