15
gdb 1874	6.08998	1.98634	1.58363	4.4525	56.82	-0.2631	0.0158	0.2789	770.8415	0.126141	-345.709596	-345.703023	-345.702079	-345.740109	24.142
C         -0.28870        1.51530        0.00420
C          0.10060        0.04010        0.02110
C          1.03200       -0.37430       -1.13290
O          1.74930       -1.52870       -0.67090
C          1.73730       -1.59280        0.69170
O          2.30790       -2.45240        1.29530
C          0.91550       -0.42700        1.23310
H          0.59630        2.15640        0.08620
H         -0.80860        1.77770       -0.92340
H         -0.95550        1.75720        0.83710
H         -0.80660       -0.57320       -0.04150
H          0.50340       -0.65060       -2.04800
H          1.75320        0.41910       -1.37040
H          1.61350        0.35010        1.57110
H          0.32890       -0.74180        2.09690
