15
gdb 12442	3.67914	2.02936	1.40077	4.2645	62.9	-0.2521	0.0029	0.255	854.2981	0.120902	-399.833392	-399.826336	-399.825391	-399.865546	25.826
O          0.11380       -0.00260       -0.45940
C          0.07080        1.15520       -0.13140
N         -1.09270        1.83790        0.12440
C         -1.27420        3.27580       -0.06580
C         -0.49910        4.14810        0.88550
C          0.65510        3.83550        1.46280
C          1.44100        2.57460        1.24430
O          1.20670        1.90530        0.00060
H         -1.90270        1.26700       -0.06650
H         -1.05140        3.57090       -1.10390
H         -2.34130        3.46960        0.08050
H         -0.94590        5.11820        1.08560
H          1.11190        4.53760        2.15660
H          2.50840        2.81610        1.22490
H          1.29170        1.86810        2.07390
