16
gdb 2092	4.99093	2.46802	1.76713	2.3425	61.28	-0.2445	0.0291	0.2735	725.1763	0.138646	-325.800095	-325.793566	-325.792622	-325.830351	24.515
C          0.02100        1.53790        0.06610
C          0.00300        0.02320       -0.04420
C          0.73270       -0.53040       -1.26510
C          0.76350       -2.05990       -1.18320
N          1.16050       -2.55510        0.13270
C          1.07170       -1.76360        1.11420
O          0.60900       -0.49040        1.16300
H          1.04980        1.91040        0.07570
H         -0.50310        1.98420       -0.78440
H         -0.47130        1.86220        0.98690
H         -1.03700       -0.33420       -0.05480
H          0.23950       -0.18920       -2.18140
H          1.75600       -0.13550       -1.27520
H         -0.22180       -2.47840       -1.42990
H          1.45950       -2.47130       -1.92240
H          1.39910       -2.07080        2.10630
