19
gdb 2220	3.38628	2.72821	2.05233	0.2271	71.45	-0.2394	0.0916	0.331	754.5596	0.171811	-273.76442	-273.757051	-273.756107	-273.795136	28.482
C         -0.01900        1.56440        0.04010
C          0.08930        0.05430        0.08620
C          1.33040       -0.74730       -0.22610
C          2.59220       -0.05880        0.30560
C          1.97080       -0.06160        1.73830
C          0.71650       -0.76370        1.18730
C         -0.01880       -1.85180        1.91730
H          0.87890        2.06240        0.41470
H         -0.18070        1.91150       -0.98670
H         -0.86370        1.91490        0.64410
H         -0.80120       -0.43970       -0.30190
H          1.32060       -1.52710       -0.98020
H          3.47810       -0.69460        0.24220
H          2.84020        0.91500       -0.12970
H          2.53090       -0.70150        2.42540
H          1.81920        0.90820        2.22420
H         -0.58010       -1.45150        2.77140
H         -0.73680       -2.35580        1.26140
H          0.67000       -2.61180        2.30530
