20
gdb 19566	3.67079	1.98784	1.83178	0.0539	78.51	-0.2647	0.0972	0.3619	845.0421	0.180017	-311.84547	-311.838861	-311.837917	-311.875741	27.787
C          0.00350        1.48820        0.01030
C          1.33920        0.75450       -0.00700
C          0.05330       -0.00210        0.00160
C         -0.55370       -0.97190        1.03260
C         -1.72280       -1.12550        0.01310
C         -0.57410       -0.96070       -1.02760
C          0.25200       -2.24430       -0.79690
C          0.26760       -2.25290        0.77160
H         -0.28170        1.99660        0.92650
H         -0.29980        2.00650       -0.89450
H          1.92070        0.78410       -0.92370
H          1.93880        0.77410        0.89820
H         -0.72360       -0.67930        2.06990
H         -2.28210       -2.06650        0.01350
H         -2.40420       -0.27300        0.02450
H         -0.76460       -0.65680       -2.05810
H         -0.23130       -3.13020       -1.21950
H          1.25630       -2.17120       -1.22340
H          1.28010       -2.18430        1.17880
H         -0.20730       -3.14340        1.19390
