14
gdb 5493	3.47432	1.90067	1.23796	0.6722	71.8	-0.2214	-0.0054	0.216	924.6742	0.106556	-345.407691	-345.400236	-345.399292	-345.439393	27.587
C         -0.03550        1.49670        0.05770
C         -0.01140        0.00310        0.01970
C         -0.02450       -0.81190       -1.06430
O          0.00660       -2.12590       -0.69560
C          0.04030       -2.15510        0.65340
C          0.03210       -0.88720        1.16500
C          0.05950       -0.51100        2.52680
C          0.08220       -0.15940        3.67870
H          0.85150        1.89490        0.56220
H         -0.06960        1.91640       -0.95100
H         -0.90710        1.86520        0.60940
H         -0.05390       -0.62480       -2.12510
H          0.06780       -3.12830        1.11430
H          0.10280        0.13990        4.69700
