13
gdb 2254	3.88863	3.11379	2.03647	2.7448	54.44	-0.2423	-0.0253	0.217	641.8881	0.10012	-344.434906	-344.428428	-344.427484	-344.465167	23.608
C         -0.08290        1.56710        0.06750
C          0.14990        0.09640       -0.00370
O         -0.75430       -0.79860        0.69340
C          0.63840       -0.93020        0.95940
C          1.18830       -1.85600       -0.13290
C          0.70940       -0.76430       -1.14190
O          0.87750       -0.58480       -2.31040
H          0.80080        2.11190       -0.27800
H         -0.92480        1.85220       -0.57130
H         -0.31030        1.86960        1.09290
H          0.98360       -0.78360        1.97560
H          2.27790       -1.95280       -0.16410
H          0.72040       -2.84030       -0.19250
