20
gdb 6967	2.42483	2.21363	1.55216	1.4261	76.49	-0.2314	0.0308	0.2622	938.3548	0.176118	-349.029916	-349.021187	-349.020243	-349.062452	33.407
C         -0.41280        1.47220        0.00840
C         -0.09720        0.01000       -0.02230
C          0.12970       -0.75340       -1.09140
C          0.40630       -2.19320       -0.73400
C         -0.02060       -2.26230        0.75010
C          0.00710       -0.80520        1.26790
C          1.29010       -0.47970        2.04610
O         -1.13210       -0.62550        2.11870
H          0.34730        2.04420        0.55670
H         -0.48020        1.88990       -0.99950
H         -1.36990        1.64910        0.51410
H          0.13960       -0.39250       -2.11550
H         -0.14530       -2.90140       -1.36290
H          1.47050       -2.43630       -0.86460
H         -1.05500       -2.60830        0.82660
H          0.59980       -2.93190        1.35180
H          2.17950       -0.69610        1.44620
H          1.33150        0.58020        2.32580
H          1.33230       -1.07660        2.96260
H         -1.00940        0.19030        2.61500
