13
gdb 6644	8.40181	0.74743	0.69369	5.7288	66.07	-0.2636	-0.0589	0.2047	1496.4806	0.092576	-398.607276	-398.59804	-398.597095	-398.644025	29.561
N         -0.09950        1.36170        0.14600
C          0.10250        0.03910       -0.11820
O          1.18830       -0.43500       -0.35910
C         -1.20410       -0.78590       -0.12970
C         -0.98550       -2.21710       -0.05840
C         -0.83240       -3.41200        0.00460
C         -0.59130       -4.83010        0.07280
O         -1.44760       -5.66350        0.26270
H          0.70550        1.96540        0.18090
H         -0.99000        1.73060        0.42960
H         -1.86300       -0.46570        0.68760
H         -1.73940       -0.54420       -1.05850
H          0.47190       -5.11210       -0.06580
