12
gdb 10238	2.2285	1.94397	1.34424	1.9575	59.9	-0.2969	-0.0705	0.2264	920.4764	0.081285	-377.552762	-377.544317	-377.543373	-377.587058	27.784
C          0.78640        0.38920        0.73070
C         -0.39780        0.18010       -0.17300
O         -1.43840        0.76770       -0.11220
C         -0.23340       -0.92610       -1.30560
C          0.84810       -0.56180       -2.22290
N          1.69710       -0.22230       -2.92840
C         -0.01580       -2.24370       -0.70530
N          0.13510       -3.26330       -0.18440
H          1.03800       -0.54640        1.24140
H          1.66190        0.67860        0.13980
H          0.55440        1.16410        1.46080
H         -1.18430       -0.92730       -1.84820
