14
gdb 21140	6.9875	1.33811	1.13895	2.1419	62.78	-0.2396	-0.004	0.2356	1025.0018	0.105755	-415.851934	-415.84403	-415.843086	-415.885087	26.97
C         -0.00630        1.37960        0.12150
N          0.20710       -0.05840        0.07830
C          0.62720       -0.58570       -0.96920
O          0.94900       -0.02320       -2.17610
N          1.37060       -1.05710       -3.05940
C          1.28780       -2.12640       -2.36000
C          1.61790       -3.49710       -2.81290
O          0.85280       -1.94340       -1.08990
H          0.72310        1.83440        0.80130
H          0.07160        1.87640       -0.85250
H         -0.99930        1.57760        0.53720
H          1.94950       -3.46540       -3.85080
H          2.40970       -3.92160       -2.18820
H          0.74060       -4.14540       -2.72820
