18
gdb 18224	4.17912	1.52648	1.27946	3.0159	71.76	-0.2412	-0.0165	0.2247	973.2623	0.155354	-347.817171	-347.810011	-347.809067	-347.848858	27.528
O         -0.00480       -0.07250        0.07590
C          0.04850        1.13050        0.09660
C          1.31730        1.95060        0.06600
C          1.37010        2.89810       -1.16460
C          2.24580        4.09380       -0.72160
C          2.03030        4.20240        0.78040
C          0.61240        4.15040        1.28620
C          1.45100        2.88970        1.26520
H         -0.88190        1.74510        0.14510
H          2.16070        1.25270        0.05310
H          1.75820        2.39090       -2.05060
H          0.35940        3.23890       -1.41590
H          3.30330        3.88390       -0.91990
H          1.99030        5.00960       -1.26540
H          2.76820        4.73100        1.37340
H          0.41710        4.58480        2.26020
H         -0.20760        4.26940        0.58580
H          1.74630        2.45650        2.21390
