14
gdb 8621	2.34654	1.89689	1.47246	3.2417	64.79	-0.257	-0.0495	0.2075	911.9628	0.102036	-382.518288	-382.509239	-382.508294	-382.552287	30.916
C         -0.00360        1.59250        0.07900
C         -0.01340        0.05040        0.01490
C          0.74870       -0.49460        1.24060
O          0.21910       -1.05700        2.15900
C         -1.45280       -0.50840        0.05510
O         -2.42880        0.18320        0.12900
C          0.64530       -0.45770       -1.18400
C          1.18500       -0.91440       -2.15680
H          1.02240        1.96750        0.11520
H         -0.49460        2.00210       -0.80540
H         -0.54770        1.93080        0.96320
H          1.84290       -0.30550        1.20650
H         -1.50810       -1.61300       -0.00700
H          1.65890       -1.30330       -3.02470
