18
gdb 7153	4.48766	0.79106	0.69838	0.7266	73.56	-0.25	0.0389	0.2888	1606.187	0.150594	-384.905905	-384.895478	-384.894534	-384.943028	34.917
C         -0.04670        1.47190       -0.02750
C          0.00640        0.01720       -0.01470
C          0.05720       -1.18600        0.01250
C          0.08260       -2.65060       -0.00110
O         -1.22450       -3.20400        0.17760
C          0.75900       -3.18710       -1.27500
C          0.86020       -4.70690       -1.28310
O          1.49650       -5.08820       -2.49460
H          0.75950        1.90120        0.57740
H          0.05300        1.86820       -1.04390
H         -0.99560        1.83660        0.38090
H          0.64650       -3.00780        0.87090
H         -1.81050       -2.75000       -0.43830
H          0.19300       -2.85590       -2.15380
H          1.76150       -2.75410       -1.36080
H          1.43860       -5.04330       -0.40590
H         -0.14520       -5.14100       -1.19700
H          1.50700       -6.04870       -2.53590
