14
gdb 21076	3.53499	2.0517	1.31248	2.1221	60.32	-0.2029	0.0367	0.2396	875.3	0.107121	-415.864761	-415.856681	-415.855737	-415.897891	28.273
C         -0.01250        1.42600       -0.03730
N         -0.02440       -0.01840        0.01020
N         -0.08110       -0.75240       -1.13430
C         -0.04020       -2.02160       -0.73360
C          0.06750       -2.11740        0.66810
O          0.07690       -3.19600        1.52450
C          0.07690       -0.80620        1.10230
O          0.14930       -0.27680        2.34250
H          1.00250        1.82400        0.07160
H         -0.41310        1.72260       -1.00650
H         -0.63710        1.83070        0.76260
H         -0.08700       -2.81940       -1.46060
H          0.80370       -3.78010        1.28530
H          0.17010       -1.01840        2.96040
