12
gdb 182	9.72664	2.54748	2.08411	1.2383	49.95	-0.23	0.0026	0.2326	576.9778	0.096619	-302.472397	-302.466506	-302.465561	-302.501719	20.934
O         -0.13450        1.34600        0.06910
N          0.03580       -0.05070        0.03830
C         -1.07970       -0.63810       -0.03450
C         -2.54140       -0.25830       -0.13110
N         -2.84480       -1.69250       -0.41930
C         -1.44120       -2.10500       -0.10900
H          0.77510        1.66060        0.10680
H         -2.94820        0.13640        0.81010
H         -2.81140        0.42950       -0.93970
H         -3.52970       -2.09410        0.21000
H         -0.96480       -2.69080       -0.90260
H         -1.30890       -2.63520        0.84420
