14
gdb 1209	6.76311	1.32975	1.21223	3.261	60.97	-0.2478	0.0243	0.272	969.3488	0.111145	-324.575799	-324.567467	-324.566522	-324.610119	28.05
C         -0.08680        1.45630        0.14320
C          0.00980       -0.05790        0.05220
O          1.00510       -0.67050        0.39240
N         -1.10860       -0.68010       -0.43290
C         -1.21500       -2.13170       -0.47630
C         -2.42660       -2.62100        0.17460
C         -3.44040       -3.01010        0.68890
H         -0.19010        1.74000        1.19510
H          0.84540        1.88920       -0.22480
H         -0.92730        1.87510       -0.41630
H         -1.93160       -0.13950       -0.64050
H         -1.18480       -2.49140       -1.51390
H         -0.31630       -2.51190        0.02040
H         -4.32550       -3.36610        1.15540
