10
gdb 23629	4.06998	1.98402	1.33382	4.7406	50.51	-0.2677	-0.0559	0.2118	791.2608	0.061007	-458.608473	-458.60266	-458.601716	-458.638804	21.092
F          0.08910        0.08710        0.00210
C         -0.06030        1.38520        0.01150
N         -1.19840        1.92530        0.02970
C         -1.27130        3.34610        0.03840
O         -2.33240        3.91970        0.05600
C          0.03320        4.03260        0.02440
C          1.16200        3.32270        0.00520
O          1.15700        1.95170       -0.00210
H          0.05600        5.11390        0.02990
H          2.17310        3.70560       -0.00650
