15
gdb 8052	3.54982	1.85159	1.53128	4.9379	65.92	-0.2821	0.026	0.3081	845.0877	0.119468	-362.627443	-362.620474	-362.619529	-362.65847	26.728
O         -0.08890        1.33320        0.03770
C          0.04360       -0.03430        0.01910
C          0.62690       -0.95400       -1.10270
C          0.06960       -1.90320       -0.00640
C          0.72450       -0.97930        1.06050
C         -1.19750       -0.98010        0.03710
C         -2.05000       -1.00840        1.21430
N         -2.73930       -1.03920        2.14210
H          0.78180        1.73080        0.14780
H          0.11040       -0.94720       -2.06550
H          1.71270       -0.94590       -1.22060
H          0.05790       -2.98910       -0.01780
H          1.81700       -0.97180        1.07860
H          0.29870       -0.99910        2.06500
H         -1.80290       -0.96920       -0.87260
