13
gdb 21452	5.88971	1.5924	1.25349	4.4329	62.61	-0.2288	-0.0109	0.218	890.9443	0.099751	-390.99644	-390.989999	-390.989055	-391.027202	23.724
N          0.09290        1.33050        0.00660
C          0.01080        0.05590        0.00230
N         -1.19030       -0.60320        0.01140
C         -2.43800       -0.01010        0.02680
N         -3.57920       -0.67630        0.03620
C         -4.49230        0.33750        0.04940
N         -3.99290        1.56000        0.04900
N         -2.65330        1.31690        0.03400
H          1.06290        1.63140       -0.00170
H          0.85820       -0.63590       -0.00890
H         -1.20370       -1.61010        0.00800
H         -5.55740        0.16110        0.05990
H         -1.93770        2.03120        0.02960
