15
gdb 8060	3.51426	1.88049	1.57251	3.5399	62.39	-0.2529	-0.0355	0.2174	832.3152	0.118094	-399.718288	-399.711135	-399.710191	-399.749697	26.76
O         -0.08370        1.35750        0.12460
C          0.06020       -0.01390        0.05500
C          0.55110       -0.92730       -1.09450
N          0.08170       -1.93040       -0.02610
C          0.79790       -1.01090        0.98390
C         -1.13450       -1.00490        0.12970
C         -1.99250       -1.09810        1.36250
O         -1.76730       -1.76570        2.34010
H          0.78940        1.76530        0.10200
H         -0.03120       -0.96030       -2.01850
H          1.62580       -0.98330       -1.28450
H          1.88650       -1.06070        0.90070
H          0.45760       -1.14190        2.00830
H         -1.78510       -1.00550       -0.75310
H         -2.90790       -0.46610        1.29690
