18
gdb 19470	4.7315	1.5007	1.4389	1.7558	71.3	-0.2339	0.0026	0.2365	951.3847	0.154349	-347.756193	-347.749094	-347.74815	-347.787477	27.915
C         -0.00460        1.54900       -0.10260
C         -0.02030        0.03960        0.16680
C         -1.41890       -0.55830        0.09850
C         -2.00560       -0.84140       -1.33380
O         -1.15290       -2.03240       -1.38500
C         -1.51550       -2.12390        0.03320
C         -3.03670       -2.33500       -0.04570
C         -3.37450       -1.45080       -0.98730
H          1.00960        1.95260       -0.02640
H         -0.37700        1.77960       -1.10650
H         -0.63260        2.08920        0.61490
H          0.62400       -0.48100       -0.54820
H          0.39320       -0.15330        1.16580
H         -2.10240       -0.06970        0.80000
H         -1.89920       -0.16950       -2.18480
H         -0.89040       -2.79660        0.61990
H         -3.63580       -3.01830        0.53760
H         -4.33410       -1.19130       -1.40900
