12
gdb 21856	4.13828	1.91409	1.31088	5.6492	63.08	-0.2223	-0.0582	0.1641	841.8605	0.084476	-410.808117	-410.80125	-410.800306	-410.839277	25.269
O          0.04270        1.36280        0.14710
C         -0.03210        0.01780        0.04970
C         -1.18840       -0.66620        0.05870
C         -1.13320       -2.11240       -0.00400
N         -2.17410       -2.85240       -0.04520
N          0.17660       -2.71880       -0.01820
N          1.23200       -2.04790       -0.02300
N          1.15680       -0.67590       -0.04460
H          0.81370        1.69530       -0.32790
H         -2.14080       -0.15760        0.09520
H         -1.88100       -3.83070       -0.08820
H          2.04230       -0.23980        0.16110
