18
gdb 14993	4.48603	1.37216	1.11712	2.0926	69.93	-0.2414	0.0236	0.265	1060.1551	0.154747	-384.934525	-384.926697	-384.925753	-384.966766	29.206
O         -0.05260        1.44440       -0.03090
C          0.02080        0.02630       -0.01980
C         -1.40760       -0.51790        0.04340
C         -1.42300       -2.04500       -0.10050
O         -2.70870       -2.57710        0.16020
C         -3.12000       -2.38320        1.49990
C         -2.84610       -0.99490        2.00800
C         -2.09030       -0.13320        1.33260
H          0.84120        1.79390        0.02650
H          0.52020       -0.35140       -0.92730
H          0.59240       -0.33650        0.84950
H         -1.95070       -0.07470       -0.80340
H         -1.16790       -2.35110       -1.11950
H         -0.67790       -2.48920        0.58310
H         -4.19590       -2.59500        1.51890
H         -2.64020       -3.12780        2.16340
H         -3.30070       -0.72610        2.95820
H         -1.91870        0.87540        1.69530
