14
gdb 14664	15.30634	0.5189	0.50506	0.0006	82.22	-0.2314	-0.026	0.2054	2065.9464	0.104522	-382.466352	-382.456787	-382.455843	-382.50377	31.015
O         -0.01480        1.46250        0.01020
C         -0.00420        0.04110        0.00230
C         -1.37100       -0.45890        0.01270
C         -2.49420       -0.90800        0.02100
C         -3.75830       -1.40820        0.03040
C         -4.88150       -1.85730        0.03870
C         -6.24820       -2.35760        0.04900
O         -6.23740       -3.77900        0.04140
H          0.90240        1.75540        0.00350
H          0.51120       -0.35190       -0.88990
H          0.52820       -0.36160        0.88000
H         -6.76380       -1.96450        0.94110
H         -6.78060       -1.95520       -0.82880
H         -7.15450       -4.07210        0.04800
