17
gdb 14395	4.14374	1.88319	1.60122	1.5226	67.57	-0.2211	0.0612	0.2823	837.5976	0.141219	-363.754165	-363.746852	-363.745908	-363.785194	29.071
C         -0.05130        1.62190        0.03650
C          0.07770        0.10830       -0.05360
O         -1.00280       -0.54050        0.59560
C          0.44670       -0.72410       -1.24300
C          1.75680       -0.31760       -1.94240
C          2.57330        0.75640       -1.32220
N          2.58050       -0.57970       -0.70530
C          1.28090       -0.83880        0.02070
H          0.27590        2.13180       -0.87030
H         -1.11270        1.84900        0.17360
H          0.49850        2.03940        0.88780
H         -0.90240       -0.39500        1.54330
H         -0.24410       -1.43990       -1.66880
H          2.04440       -0.76250       -2.89010
H          3.51640        0.96690       -1.82160
H          2.15840        1.60430       -0.79910
H          1.28900       -1.61680        0.77410
