18
gdb 13539	2.89816	1.53634	1.14117	3.5701	72.27	-0.2637	0.0371	0.3008	1082.6172	0.153366	-343.982458	-343.973586	-343.972642	-344.016285	31.761
C         -0.22150        1.45540        0.14540
C          0.14470       -0.01180       -0.15230
C          0.92950       -0.12130       -1.38790
N          1.55910       -0.20250       -2.35390
C          0.90760       -0.63690        1.01070
N          0.08720       -1.05480        2.15400
C          0.83250       -2.07320        1.38990
C          0.03300       -3.12100        0.65310
H          0.67840        2.05940        0.29340
H         -0.79510        1.89260       -0.67530
H         -0.82280        1.48990        1.05700
H         -0.78170       -0.57590       -0.29890
H          1.85080       -0.13310        1.21930
H          0.55000       -0.83790        3.03180
H          1.73860       -2.45940        1.85580
H         -0.90590       -2.71580        0.26980
H          0.60670       -3.52840       -0.18570
H         -0.21750       -3.94770        1.32590
