16
gdb 6677	8.4822	0.7416	0.68779	2.7405	64.4	-0.2579	0.0208	0.2786	1543.4114	0.128639	-417.088921	-417.079171	-417.078227	-417.126732	31.369
N         -0.10610        1.31390        0.01020
C          0.05290       -0.03960        0.00110
O          1.14750       -0.57140       -0.01250
C         -1.24810       -0.83580        0.00880
C         -0.97670       -2.33120       -0.00210
O         -2.24810       -2.98640        0.00630
C         -2.21890       -4.33180        0.00040
N         -3.29780       -4.98740        0.00660
H          0.71730        1.89280        0.00560
H         -1.00980        1.75270        0.02140
H         -1.84020       -0.57320        0.89330
H         -1.85660       -0.56330       -0.86150
H         -0.40480       -2.60990       -0.89400
H         -0.38800       -2.61970        0.87570
H         -1.20230       -4.74990       -0.01020
H         -3.09500       -5.98500        0.00060
