16
gdb 9477	3.08574	1.75349	1.5332	3.1415	65.21	-0.2581	0.0187	0.2768	889.8453	0.130296	-379.908957	-379.900792	-379.899848	-379.941344	29.984
C         -0.02950        1.52900       -0.00220
C          0.06030        0.00880        0.02890
N          1.12410       -0.58710       -0.82390
C          1.45410       -1.59560        0.21250
C          0.77760       -0.68580        1.26680
O          1.63500        0.14630        1.99160
C         -1.25780       -0.60030       -0.20260
N         -2.27960       -1.10500       -0.40300
H          0.93790        1.96200        0.25740
H         -0.30850        1.87270       -1.00240
H         -0.77800        1.88860        0.70920
H          0.82050       -0.94380       -1.72410
H          0.93880       -2.55800        0.10190
H          2.52590       -1.77390        0.34730
H          0.11130       -1.15970        1.98670
H          2.32750        0.45930        1.39810
