16
gdb 7768	3.42844	1.76988	1.21521	4.2743	67.75	-0.2411	-0.0512	0.1899	950.7387	0.131201	-383.775816	-383.768523	-383.767579	-383.807308	27.788
O         -0.07960        1.45480        0.04410
C          0.04690        0.04230        0.01420
C          0.74200       -0.50390        1.27050
C          0.63500       -2.00070        1.36070
C         -0.31450       -2.70660        0.73360
C         -1.36730       -2.06340       -0.08440
O         -2.20560       -2.71320       -0.67510
C         -1.35930       -0.53820       -0.10940
H          0.80250        1.83870        0.00700
H          0.63230       -0.27160       -0.86580
H          1.79670       -0.20100        1.28880
H          0.27830       -0.04060        2.15380
H          1.37450       -2.51580        1.96970
H         -0.36750       -3.78840        0.80330
H         -1.95760       -0.18270        0.74170
H         -1.85480       -0.19370       -1.01950
