19
gdb 9520	2.74185	1.80111	1.52546	2.3614	72.06	-0.2612	0.0318	0.293	955.5832	0.16494	-365.072533	-365.063921	-365.062977	-365.105388	31.823
C         -0.09230        1.60790        0.00630
C          0.07620        0.08490        0.01430
C          0.75500       -0.48810       -1.24190
C          2.16740        0.05100       -1.47110
C          0.60640       -2.02580       -1.39680
O         -0.23610       -1.83810       -2.57710
C         -0.12530       -0.46770       -2.48610
N         -0.60600        0.43800       -3.20970
H          0.87220        2.12320        0.04170
H         -0.61720        1.93360       -0.89590
H         -0.66900        1.93140        0.87800
H          0.66130       -0.22520        0.89070
H         -0.90950       -0.38530        0.11990
H          2.79570       -0.12420       -0.59070
H          2.64040       -0.43390       -2.33050
H          2.14630        1.12510       -1.66980
H          1.51600       -2.57600       -1.65190
H          0.05710       -2.54140       -0.60470
H         -1.16330        0.05060       -3.97340
