17
gdb 12528	3.5212	1.9573	1.35984	2.1958	70.34	-0.2354	-0.0032	0.2322	917.1716	0.142991	-363.864562	-363.857015	-363.856071	-363.896667	28.103
C         -0.58210        1.29250        0.11790
C          0.12240       -0.05480        0.09730
O          0.52820       -0.26600       -1.27610
C          1.07070       -1.45490       -1.63940
N          1.54120       -2.43300       -0.99740
C          1.70620       -2.52740        0.44820
C          1.98690       -1.25080        1.21250
C          1.28640       -0.13190        1.05300
H          0.11610        2.09050       -0.15270
H         -1.41370        1.30360       -0.59030
H         -0.97090        1.49610        1.12010
H         -0.59990       -0.84760        0.34060
H          1.06910       -1.50180       -2.72980
H          0.82330       -3.03130        0.87410
H          2.53390       -3.22500        0.61480
H          2.81450       -1.27470        1.91760
H          1.53690        0.76680        1.61030
