13
gdb 15033	2.61306	1.89356	1.23485	2.7906	58.81	-0.2822	-0.0597	0.2225	934.5455	0.093363	-398.584971	-398.577006	-398.576061	-398.618884	26.559
O         -0.19210        0.25180        0.51470
C         -0.03680        1.32760        0.00960
C          1.36270        1.96820       -0.11910
C          1.43320        2.85530       -1.27590
N          1.46960        3.54410       -2.20260
C          1.67350        2.68330        1.20220
C          2.42820        3.93760        1.28100
O          1.00300        3.91100        1.43490
H         -0.87740        1.94840       -0.35790
H          2.07860        1.14700       -0.23870
H          1.68850        1.99340        2.04570
H          2.98940        4.16090        2.18610
H          2.78510        4.40920        0.36850
