16
gdb 5746	4.83445	1.84693	1.43748	3.9941	70.86	-0.2137	0.0427	0.2564	868.9411	0.132853	-342.794216	-342.787452	-342.786508	-342.825408	25.568
C         -0.41960        1.59950       -0.25810
C          0.01240        0.16510       -0.01880
C          0.80370       -0.57480       -1.17710
C          1.92270       -0.67190       -0.15760
N          3.08720       -1.13090        0.23170
C          3.14000       -0.71300        1.55510
C          2.00290       -0.02940        1.94650
N          1.24390       -0.00690        0.79860
H          0.40880        2.19520       -0.65270
H         -1.24310        1.62650       -0.97900
H         -0.76840        2.06490        0.66910
H         -0.81380       -0.43550        0.37460
H          0.36250       -1.52180       -1.49720
H          1.00000        0.04690       -2.05480
H          4.00840       -0.92190        2.16250
H          1.71810        0.43110        2.87680
