14
gdb 11485	3.37646	1.503	1.12934	3.9766	62.91	-0.2647	-0.0932	0.1715	1009.7995	0.106574	-378.705941	-378.698001	-378.697057	-378.739485	27.231
O         -0.62660        0.13090       -1.04520
C         -0.00780        1.02120       -0.52340
C          1.39260        1.45560       -0.90840
C          2.42040        0.98420        0.11100
C          3.62960        1.80240        0.37800
N          2.58780        1.65900        1.40550
C         -0.60280        1.78410        0.60010
N         -1.05290        2.41490        1.45880
H          1.60530        1.02510       -1.89140
H          1.41980        2.54950       -0.98330
H          2.50230       -0.09860        0.17830
H          4.57290        1.31620        0.60850
H          3.72440        2.74950       -0.14780
H          2.01470        2.49770        1.45910
