18
gdb 800	3.95026	1.85752	1.43164	0.5991	67.04	-0.2393	0.0188	0.2581	904.2528	0.157266	-326.951067	-326.942156	-326.941212	-326.984134	31.926
C          0.03290        1.56040       -0.06510
C         -0.04480        0.03330        0.02350
C          0.67850       -0.48350        1.28480
C         -1.45990       -0.50810       -0.02770
C         -1.67240       -1.98970       -0.20540
N         -2.41840        0.32870        0.08790
O         -3.67310       -0.30760        0.04930
H          1.07930        1.88210       -0.07370
H         -0.45310        1.93220       -0.97040
H         -0.46450        2.02830        0.78860
H          0.47770       -0.39130       -0.84720
H          0.21090       -0.07540        2.18720
H          0.65320       -1.57490        1.35600
H          1.72800       -0.17290        1.27640
H         -2.08830       -2.43550        0.70470
H         -2.40160       -2.17090       -1.00010
H         -0.73910       -2.50150       -0.44880
H         -4.27710        0.43910        0.11640
