15
gdb 18173	4.83851	1.6037	1.30077	1.7502	76.27	-0.2246	-0.0212	0.2034	922.0746	0.119719	-325.477625	-325.470865	-325.469921	-325.508348	26.625
C          0.08870       -1.18910       -0.01860
C          0.00320        0.01300        0.00200
C         -0.04080        1.42620        0.00590
C         -1.13140        2.20990        0.08750
C         -0.79510        3.68280        0.03270
C          0.72890        3.69110       -0.02410
N          1.36540        3.10220        1.17260
C          1.19600        2.27950       -0.05450
H          0.14850       -2.24900       -0.02640
H         -2.14330        1.84140        0.20510
H         -1.23560        4.16190       -0.85210
H         -1.17320        4.22240        0.90950
H          1.24770        4.47750       -0.56100
H          2.33060        3.42540        1.21520
H          2.07280        1.94370       -0.59610
