15
gdb 16148	4.13824	1.74458	1.46509	2.3737	61.75	-0.2523	-0.0336	0.2188	851.9275	0.11998	-399.784951	-399.778179	-399.777235	-399.816016	25.219
O         -0.47880        0.69290        0.73200
C          0.21510        0.98170       -0.21260
C          1.37570        1.90020       -0.13200
C          1.88470        2.40740        1.20720
O          2.72380        3.51660        0.88710
C          2.17380        4.15950       -0.25620
C          1.57790        3.03930       -1.09440
N          2.35680        1.82160       -1.23320
H          0.03430        0.57590       -1.23100
H          1.03160        2.69860        1.83580
H          2.49220        1.68280        1.75700
H          1.38420        4.87820        0.01580
H          2.98410        4.70340       -0.75240
H          0.88320        3.27000       -1.89580
H          3.29380        1.95510       -0.85350
