15
gdb 12752	3.27238	1.86289	1.4987	5.1668	65.57	-0.2704	0.0236	0.294	872.0087	0.118201	-362.645282	-362.637884	-362.636939	-362.676934	27.298
C         -0.10640        1.51530        0.01510
C          0.13680        0.04330        0.02230
O         -0.73530       -0.80230        0.76890
C          0.67440       -0.91210        1.00870
C          1.23260       -1.84260       -0.07230
C          0.69130       -0.82300       -1.14830
C         -0.27250       -1.29530       -2.12880
N         -1.04030       -1.66500       -2.91000
H          0.77190        2.05580       -0.35110
H         -0.95280        1.76050       -0.63560
H         -0.33960        1.86220        1.02480
H          1.01900       -0.76020        2.02470
H          2.32150       -1.91270       -0.09110
H          0.79070       -2.83960       -0.09480
H          1.51680       -0.32160       -1.66060
