17
gdb 18149	3.64244	1.68888	1.46516	4.0944	69.82	-0.2332	0.0248	0.2581	909.5613	0.142446	-363.849088	-363.84152	-363.840576	-363.881199	27.981
C          0.29540        1.61050        0.04150
C          0.18420        0.10520       -0.04770
C          0.63050       -0.73830       -1.22260
C          1.96060       -0.24040       -1.81590
N          2.55540       -0.34970       -0.47320
C          3.57560        0.36890        0.05990
O          4.35860        1.03690       -0.58300
C          1.33110       -0.85760        0.13170
H          1.24360        1.98090       -0.35600
H         -0.51180        2.09240       -0.52010
H          0.22270        1.94190        1.08270
H         -0.72920       -0.29660        0.38890
H         -0.01730       -1.45710       -1.70450
H          2.41230       -0.94300       -2.52210
H          1.98860        0.76740       -2.24080
H          3.63440        0.24170        1.16110
H          1.35430       -1.67260        0.84550
