15
gdb 11300	4.97766	1.36947	1.23125	5.0762	61.52	-0.2743	0.0164	0.2908	963.8057	0.119393	-399.807672	-399.800112	-399.799168	-399.840299	27.145
O         -0.61370        1.40420        0.44460
C         -0.00920        0.19940        0.00130
C          0.84980       -0.46180        1.08210
O         -0.06180       -1.10160        1.97260
C         -1.30830       -1.31510        1.31050
C         -1.13210       -0.82720       -0.14810
C         -1.68570       -2.73440        1.39150
N         -1.99800       -3.84550        1.44210
H          0.07980        2.02020        0.70150
H          0.54820        0.34840       -0.93340
H          1.53960       -1.19400        0.63650
H          1.43820        0.25980        1.65930
H         -2.07970       -0.72720        1.82240
H         -2.04200       -0.38330       -0.55220
H         -0.81640       -1.64930       -0.79420
