16
gdb 17363	4.03244	1.56766	1.48776	2.9428	64.5	-0.2375	-0.0138	0.2236	897.4509	0.129076	-383.715734	-383.708194	-383.70725	-383.748052	27.742
C          0.55870        0.52460       -0.74670
C         -0.18300        0.14860        0.51930
O          0.05130        0.67750        1.58370
C         -1.23270       -0.95230        0.43890
C         -2.12300       -1.19850       -0.83880
C         -1.58230       -2.63370       -0.88910
O         -0.15940       -2.54710       -1.03470
C         -0.71340       -2.40510        0.27530
H          0.86530       -0.37110       -1.29360
H         -0.10820        1.08930       -1.40980
H          1.41570        1.15040       -0.49450
H         -1.84770       -0.87860        1.33830
H         -3.18750       -1.13480       -0.60490
H         -1.90920       -0.59930       -1.72600
H         -2.05890       -3.53670       -1.25100
H         -0.34420       -3.07040        1.04660
