10
gdb 21770	3.75754	2.51433	1.81481	3.4687	54.5	-0.2565	-0.1386	0.1179	674.1687	0.061022	-409.600768	-409.594916	-409.593972	-409.630764	21.083
O         -0.01220        0.27090       -0.78780
C         -0.01550        1.22180       -0.06470
N         -1.18860        1.79910        0.48150
C         -1.41870        3.02110        0.20470
N         -0.68960        3.87230       -0.67060
N          0.56970        3.88950       -0.68740
C          1.34480        3.05880        0.16800
N          1.15540        1.83100        0.45030
H         -2.32740        3.49940        0.56900
H          2.24940        3.56180        0.50820
