20
gdb 7553	2.82873	1.57781	1.20911	2.7805	72.28	-0.221	0.0741	0.295	1088.7799	0.175082	-386.113658	-386.104378	-386.103433	-386.14723	34.159
C         -0.91950        1.36340        0.41060
O         -1.17250       -0.01560        0.57230
C         -0.69540       -0.80040       -0.51260
C         -0.97460       -2.27400       -0.28640
C         -0.39630       -3.14710       -1.38260
C         -0.98240       -2.80180        1.14220
C         -2.27380       -2.69230        0.36390
O         -3.28150       -1.79270        0.70380
H         -1.31050        1.87330        1.29370
H          0.15940        1.56200        0.32950
H         -1.41510        1.76460       -0.48590
H         -1.17530       -0.46730       -1.44910
H          0.38990       -0.63780       -0.62950
H          0.69790       -3.07390       -1.41850
H         -0.64960       -4.19830       -1.21770
H         -0.78390       -2.86390       -2.36890
H         -0.55710       -3.78190        1.33570
H         -0.83080       -2.07450        1.93220
H         -2.71600       -3.61890        0.00850
H         -2.85020       -0.94500        0.88120
