22
gdb 15715	2.72786	1.6842	1.14482	1.5852	77.27	-0.2453	0.077	0.3223	1120.3838	0.201281	-350.217049	-350.208264	-350.20732	-350.250683	32.854
C         -0.11860        1.61320        0.05280
C         -0.11600        0.08010        0.03590
C          0.71740       -0.52590        1.17370
C          0.11810       -0.21870        2.57710
O          0.15550       -1.42160        3.33030
C         -0.02900       -2.47090        2.39900
C          0.83690       -2.08830        1.18950
C          0.47900       -2.83730       -0.09330
H          0.89970        2.00860       -0.03620
H         -0.70640        2.01690       -0.77730
H         -0.54540        2.00780        0.98100
H         -1.14970       -0.28590        0.09680
H          0.27450       -0.26260       -0.92900
H          1.72470       -0.09960        1.10690
H          0.66990        0.54070        3.13750
H         -0.92430        0.12780        2.47220
H          0.26880       -3.40760        2.87820
H         -1.09100       -2.55650        2.10360
H          1.87310       -2.33260        1.44990
H         -0.55650       -2.65640       -0.39850
H          1.12850       -2.54890       -0.92560
H          0.59570       -3.91690        0.05150
