21
gdb 9403	5.16351	0.7719	0.73156	3.9777	77.56	-0.2386	0.0335	0.2721	1612.0582	0.187483	-366.29734	-366.287264	-366.28632	-366.333352	34.609
C          0.06000        1.55190       -0.10810
C         -0.00310        0.02850        0.03150
C         -1.43210       -0.52040       -0.03820
C         -1.48090       -2.04810        0.10500
N         -2.81950       -2.61130        0.05350
C         -3.52110       -2.64980       -1.21800
C         -3.41980       -3.11670        1.16870
O         -4.53370       -3.59550        1.22050
H          1.09090        1.91440       -0.05090
H         -0.35570        1.87920       -1.06740
H         -0.51190        2.04540        0.68510
H          0.60370       -0.43750       -0.75620
H          0.45510       -0.27130        0.98350
H         -2.04560       -0.07180        0.75350
H         -1.88900       -0.22300       -0.99030
H         -0.86950       -2.51270       -0.68170
H         -1.03420       -2.33800        1.06300
H         -2.90830       -3.15060       -1.97720
H         -4.44680       -3.20560       -1.06810
H         -3.76450       -1.64400       -1.57850
H         -2.75710       -3.04450        2.05410
