18
gdb 7607	3.33421	1.57503	1.31264	2.4423	69.55	-0.2356	-0.011	0.2246	1008.4382	0.150583	-384.953423	-384.944254	-384.94331	-384.986997	33.406
C         -0.05290        1.52910        0.09350
C          0.02850        0.02150        0.06040
C          1.31650       -0.68390       -0.23760
C          0.75270       -0.72980        1.17430
O          1.34800        0.05510        2.17010
C          0.12060       -2.01830        1.61920
C          0.16010       -2.32590        3.10250
O         -0.40320       -2.76260        0.81560
H          0.84180        1.96220        0.54600
H         -0.15680        1.92850       -0.92100
H         -0.91690        1.86480        0.67610
H         -0.86130       -0.49630       -0.28490
H          1.28360       -1.60900       -0.80120
H          2.20450       -0.07270       -0.36730
H          2.25920       -0.23470        2.28230
H         -0.25350       -1.49330        3.67910
H         -0.39680       -3.24330        3.29500
H          1.19590       -2.44860        3.43980
