18
gdb 18254	4.28031	1.56786	1.30059	1.4043	72.35	-0.2246	0.0235	0.2481	963.6647	0.155136	-347.792019	-347.784653	-347.783709	-347.823559	28.578
O         -0.07490        1.49380       -0.00920
C          0.05530        0.08010        0.06950
C         -1.34730       -0.52040       -0.03400
C         -2.04620       -0.24090       -1.35250
C         -2.55030       -1.34890       -1.90070
C         -2.21890       -2.56390       -1.09910
C         -0.73860       -2.88040       -1.01330
C         -1.39050       -2.04800        0.06610
H          0.80590        1.87890        0.00430
H          0.68880       -0.30710       -0.74240
H          0.51480       -0.22410        1.02350
H         -1.92890       -0.07930        0.78890
H         -2.08980        0.75680       -1.77120
H         -3.10080       -1.39470       -2.83400
H         -2.93770       -3.36880       -0.99120
H         -0.45430       -3.89070       -0.73620
H         -0.08200       -2.40890       -1.73660
H         -1.48320       -2.49640        1.04830
