18
gdb 12381	2.97685	2.0298	1.29873	2.796	67.84	-0.2315	-0.021	0.2105	949.1463	0.154233	-384.967402	-384.95962	-384.958676	-384.999553	29.111
C          0.00250        1.57630       -0.00680
C          0.09840        0.05180        0.01070
C          0.74760       -0.54320       -1.25710
C          0.94130       -2.05110       -1.12000
O          1.75540       -2.35880       -0.00030
C          1.17030       -1.96060        1.22500
C          0.80230       -0.47410        1.26090
O          1.02240        0.20560        2.23550
H          0.99740        2.02690       -0.07890
H         -0.58840        1.91450       -0.86340
H         -0.45990        1.94880        0.90940
H         -0.91900       -0.37060        0.07570
H          0.12890       -0.31860       -2.13400
H          1.72610       -0.07570       -1.42160
H         -0.03630       -2.55740       -1.03140
H          1.45620       -2.46550       -1.99110
H          0.25190       -2.54350        1.42880
H          1.89060       -2.16590        2.01910
