15
gdb 13526	3.01238	2.01082	1.36305	5.7577	57.67	-0.2353	0.0251	0.2604	884.4145	0.118462	-436.933805	-436.92585	-436.924906	-436.96682	28.676
N         -0.06370        1.34120       -0.02380
C          0.08590       -0.02200       -0.04870
O          1.12940       -0.58830       -0.28290
C         -1.23480       -0.79820        0.10640
O         -1.02460       -2.15600        0.52240
C         -1.58140       -1.89770        1.82760
C         -2.12650       -0.53660        1.34730
O         -1.81960        0.62510        2.08610
H          0.80160        1.86200       -0.04610
H         -0.79380        1.71140        0.56900
H         -1.75550       -0.74790       -0.85860
H         -2.30610       -2.66190        2.12750
H         -0.80460       -1.79320        2.59670
H         -3.19210       -0.57280        1.09510
H         -2.52330        0.78650        2.72150
