17
gdb 20153	3.49568	3.01902	2.72296	1.7933	68.52	-0.2245	0.0961	0.3206	642.072	0.14722	-326.697136	-326.692244	-326.6913	-326.725703	22.017
C         -0.06210        1.58340        0.00250
C          1.45970        1.81290        0.03200
C          1.92020        0.98840        1.24410
C          1.11860       -0.24690        1.03840
C          0.03330        0.03770       -0.03720
C          0.84850       -0.16470       -1.33840
C          2.05230        0.62760       -0.83630
N          2.47930       -0.12030        0.41390
H         -0.54770        1.96400        0.90670
H         -0.56550        1.99900       -0.87710
H          1.84490        2.81960       -0.11160
H          2.37610        1.31950        2.17120
H          1.01920       -1.01750        1.79230
H         -0.89290       -0.52510        0.06790
H          1.11250       -1.20750       -1.53520
H          0.35980        0.26290       -2.21900
H          2.87970        0.82850       -1.51410
