16
gdb 2769	4.46999	2.00044	1.50109	2.8429	62.44	-0.2271	-0.0282	0.199	822.145	0.135753	-325.758113	-325.750714	-325.74977	-325.78988	26.07
C         -0.31920        1.50350       -0.17840
N         -0.18510        0.08000        0.04140
C         -1.27480       -0.64860        0.71700
C         -0.20870       -1.52490        1.41480
C          0.80040       -0.39980        1.02440
C          2.11530       -0.86100        0.43830
O          3.17490       -0.81500        1.00800
H          0.60710        1.90380       -0.60350
H         -1.12520        1.69100       -0.89560
H         -0.54460        2.06630        0.74660
H         -1.83140       -0.02540        1.43630
H         -1.98990       -1.13700        0.04670
H         -0.32420       -1.72110        2.47970
H         -0.01610       -2.46110        0.88650
H          0.99230        0.29040        1.86040
H          2.00990       -1.28530       -0.58720
