19
gdb 15069	3.00331	1.48738	1.12151	2.0418	71.53	-0.249	-0.0396	0.2094	1110.173	0.164151	-365.041608	-365.032626	-365.031682	-365.075841	31.857
C         -0.11840        1.53030        0.16870
C          0.03460        0.01130        0.04260
C          0.68410       -0.42840       -1.28140
C          2.12300        0.06200       -1.36330
O          2.71440        0.29340       -2.38700
C          0.62680       -1.94830       -1.45870
C          1.43150       -2.65960       -2.47840
N          1.71750       -2.85170       -1.04310
H          0.84910        2.04270        0.12050
H         -0.74120        1.93110       -0.63830
H         -0.58630        1.80140        1.11950
H          0.62910       -0.37870        0.87960
H         -0.94860       -0.46520        0.12480
H          0.14650        0.02300       -2.12570
H          2.63230        0.17720       -0.37670
H         -0.35650       -2.35290       -1.22350
H          1.01780       -3.52940       -2.98050
H          2.12490       -2.07130       -3.07240
H          2.55000       -2.32560       -0.78700
