17
gdb 2936	5.92009	1.91663	1.57773	1.4309	66.13	-0.2295	0.0185	0.248	819.6131	0.148569	-309.726463	-309.719311	-309.718367	-309.757828	26.074
C         -0.13500        1.52360        0.05160
C         -0.02390       -0.00260        0.03100
C          0.86260       -0.54750        1.15800
O          0.33040       -0.17190        2.43620
C          0.12690       -1.32070        3.25300
C          0.51980       -2.48850        2.39270
C          0.94540       -2.05000        1.21460
H          0.84610        1.99300       -0.08290
H         -0.79000        1.88350       -0.74760
H         -0.54000        1.86340        1.00830
H         -1.01720       -0.45800        0.12360
H          0.39350       -0.33900       -0.92730
H          1.86760       -0.10020        1.05370
H          0.74240       -1.24930        4.16480
H         -0.92410       -1.36790        3.57880
H          0.45760       -3.51730        2.72450
H          1.30350       -2.64820        0.38620
