17
gdb 17210	4.35369	1.82392	1.5704	1.0638	67.97	-0.236	0.061	0.2969	847.8817	0.14357	-363.792434	-363.785729	-363.784785	-363.823473	26.077
C         -0.34570        1.36800       -0.00650
N          1.06590        0.93310        0.03790
C         -0.00100       -0.06600        0.03590
C         -0.17280       -1.12250        1.14210
C         -0.49030       -2.18030        0.04770
C         -1.94540       -2.18830       -0.45800
O         -1.67090       -1.16470       -1.44670
C         -0.28480       -1.10210       -1.05740
H         -0.69400        1.86720        0.89390
H         -0.75110        1.76480       -0.93380
H          1.48010        1.00340       -0.88980
H          0.76230       -1.31540        1.67390
H         -0.96550       -0.94240        1.87430
H          0.03860       -3.13070        0.08410
H         -2.26400       -3.12140       -0.93840
H         -2.71090       -1.87750        0.26430
H          0.39660       -1.16340       -1.91290
