17
gdb 7646	4.69376	1.25465	1.06868	3.6031	66.69	-0.2341	0.0327	0.2668	1100.3476	0.140673	-401.011676	-401.002799	-401.001854	-401.04636	30.461
C         -0.03920        1.50980        0.27260
C          0.06130       -0.00510        0.18440
O          1.10790       -0.61970        0.29740
N         -1.11930       -0.64880       -0.02440
C         -2.46420       -0.22030       -0.41570
C         -2.82790       -1.71200       -0.62800
O         -3.28800       -1.94600       -1.93420
C         -1.33570       -2.06250       -0.32170
H          0.93070        1.90490        0.57310
H         -0.31210        1.93560       -0.69940
H         -0.80230        1.82080        0.99320
H         -3.02430        0.31260        0.35990
H         -2.50590        0.34700       -1.35300
H         -3.52430       -2.10050        0.12470
H         -3.45450       -2.88870       -2.03580
H         -0.78340       -2.41460       -1.20030
H         -1.14690       -2.73460        0.52120
