14
gdb 1804	3.92809	2.64102	1.87376	2.143	53.51	-0.2463	0.0175	0.2638	692.5005	0.112408	-361.733052	-361.72572	-361.724776	-361.764215	26.699
C         -0.20340        1.53340       -0.52730
C         -0.07060        0.12100       -0.01820
C          0.92040       -0.81050       -0.59100
O          1.13950       -0.20960        0.68760
C         -1.34010       -0.47700        0.56940
N         -1.11720       -1.37260        1.56820
O         -2.43840       -0.17830        0.14100
H          0.72010        1.85600       -1.01340
H         -1.03220        1.58850       -1.23610
H         -0.42230        2.21940        0.29680
H          0.72800       -1.88150       -0.57670
H          1.57330       -0.45850       -1.38800
H         -0.19980       -1.42590        1.97990
H         -1.91240       -1.75150        2.05480
