17
gdb 7809	3.34632	1.71934	1.19073	2.7646	64.85	-0.2384	0.0294	0.2677	977.3098	0.144301	-401.04659	-401.03902	-401.038076	-401.078472	28.652
O         -0.06710        1.44800        0.00960
C          0.00680        0.03030        0.01990
C         -1.41830       -0.50550        0.05510
C         -1.40320       -2.03040        0.14500
N         -0.51650       -2.61000       -0.85690
C          0.58260       -2.02410       -1.42540
O          1.37090       -2.65810       -2.10140
C          0.72170       -0.51700       -1.21880
H          0.82810        1.79490       -0.06270
H          0.53470       -0.31540        0.92570
H         -1.95610       -0.09030        0.91180
H         -1.93870       -0.18090       -0.85320
H         -1.09200       -2.33620        1.15580
H         -2.41270       -2.42570       -0.00920
H         -0.55360       -3.60940       -0.99970
H          0.29790       -0.02560       -2.10390
H          1.79250       -0.29300       -1.21080
