16
gdb 10039	3.42315	1.25044	0.98498	5.9315	69.25	-0.3291	0.013	0.3421	1169.3527	0.129826	-342.820932	-342.812078	-342.811134	-342.854942	30.479
C         -0.04260        1.55760        0.06320
C          0.03350        0.03150       -0.00530
C          0.70880       -0.49500       -1.29270
C          0.82940       -2.04270       -1.26040
C          1.62180       -2.58470       -2.36110
N          2.26510       -3.00480       -3.22360
C         -0.02670       -0.06010       -2.48470
N         -0.63310        0.28730       -3.40490
H          0.95570        2.00650        0.02760
H         -0.62520        1.96370       -0.76850
H         -0.51840        1.87440        0.99520
H          0.60670       -0.35410        0.84590
H         -0.97130       -0.40050        0.06690
H          1.71950       -0.07430       -1.35910
H          1.30010       -2.33530       -0.31590
H         -0.16810       -2.49390       -1.27900
