14
gdb 579	11.9149	1.76899	1.6621	2.7826	54.2	-0.2458	-0.0201	0.2258	725.196	0.118731	-270.427802	-270.42131	-270.420366	-270.45852	22.45
O         -0.29930        0.07780       -0.12300
C          0.03470        1.23270       -0.05870
C          1.43640        1.74680       -0.31690
C          1.44730        2.89170       -1.31250
C          1.15120        4.30350       -0.86300
C          2.54810        3.92120       -1.28200
H         -0.70100        2.02950        0.20000
H          1.83560        2.10360        0.64410
H          2.05800        0.90810       -0.64620
H          1.07950        2.62330       -2.29930
H          0.57110        4.94270       -1.51870
H          0.96970        4.47380        0.19330
H          3.30410        3.82960       -0.50910
H          2.92390        4.29660       -2.22700
