20
gdb 10524	3.81036	1.138	0.99884	1.8784	70.99	-0.2608	0.0864	0.3473	1247.7704	0.175679	-386.123493	-386.11431	-386.113365	-386.1577	33.405
C          0.20940        1.57410        0.04810
C          0.27170        0.04470        0.06340
C          0.38080       -0.55200       -1.34870
C          0.52550       -2.06160       -1.37180
C         -0.70240       -2.88360       -0.99100
O         -0.39680       -4.25160       -0.84130
C          1.55590       -2.70100       -2.19950
O          1.73610       -2.57350       -0.77680
H          1.10240        2.00230       -0.42060
H         -0.66130        1.93140       -0.51330
H          0.13970        1.97840        1.06250
H          1.13630       -0.28940        0.64800
H         -0.61670       -0.34840        0.57140
H         -0.50110       -0.27350       -1.94220
H          1.24660       -0.10870       -1.85400
H         -1.14390       -2.47120       -0.06960
H         -1.45880       -2.79870       -1.78000
H          0.43180       -4.27470       -0.34290
H          1.40460       -3.71910       -2.54940
H          2.21920       -2.08280       -2.80190
