19
gdb 14185	2.74827	2.23076	2.11884	1.9112	75.76	-0.2235	0.0902	0.3137	823.8801	0.165031	-327.844398	-327.836898	-327.835953	-327.875453	29.738
C          0.01840        1.53010       -0.00860
C          0.02160        0.02350       -0.04440
C          0.51960       -0.93950       -1.11930
N          0.02170       -1.93680       -0.08020
C          0.51850       -0.98830        1.03840
C         -0.82580       -1.05850        1.76170
C         -1.15970       -0.97440        0.26510
C         -2.49370       -1.09360       -0.41070
H          1.03520        1.92880       -0.09820
H         -0.57390        1.94220       -0.83350
H         -0.40640        1.90630        0.92880
H         -0.01760       -0.98640       -2.07310
H          1.60010       -0.99960       -1.29320
H          1.53240       -1.09300        1.43010
H         -1.05950       -2.00880        2.25060
H         -1.10570       -0.20480        2.38480
H         -3.15860       -0.28140       -0.09680
H         -2.39770       -1.05000       -1.50070
H         -2.97050       -2.04420       -0.15070
