17
gdb 20539	4.4257	1.50502	1.22433	3.9555	69.53	-0.2492	0.0027	0.2519	1001.8445	0.143338	-360.054168	-360.046382	-360.045438	-360.086802	28.625
C         -0.06850        1.57170        0.46040
C         -0.06600        0.09870        0.03440
C          0.98310       -0.71350        0.81640
C         -1.42580       -0.52790        0.16270
C         -2.58410       -0.05760        0.73910
N         -3.47450       -1.06370        0.56150
N         -2.92050       -2.10330       -0.08570
N         -1.68380       -1.78050       -0.32610
H          0.92110        2.01450        0.31350
H         -0.78930        2.15820       -0.11830
H         -0.31990        1.67510        1.52250
H          0.20740        0.04890       -1.02790
H          0.77800       -0.67850        1.89220
H          0.97110       -1.76010        0.50320
H          1.98700       -0.30990        0.64820
H         -2.84110        0.86340        1.23310
H         -4.44200       -1.11250        0.83760
