17
gdb 10636	2.5414	1.92891	1.37578	4.5923	69.79	-0.2478	0.0224	0.2702	956.4035	0.141929	-360.012074	-360.003368	-360.002424	-360.045062	31.397
C         -0.20540        1.46570        0.09230
N          0.03540        0.02730        0.09000
C          1.36430       -0.46760       -0.19960
C          0.79780       -0.57610        1.18820
C          1.39900        0.23580        2.32920
N          0.35200        0.63490        3.27140
C          0.27010       -1.85670        1.62900
N         -0.12380       -2.86910        2.02560
H          0.68900        2.07330        0.29420
H         -0.58710        1.74410       -0.89430
H         -0.95910        1.69850        0.84680
H          1.42780       -1.34560       -0.83600
H          2.17330        0.25340       -0.32220
H          2.21190       -0.36370        2.77220
H          1.86010        1.13970        1.92210
H         -0.05900       -0.19180        3.69760
H          0.75920        1.17420        4.02900
