16
gdb 986	3.63958	3.07952	1.70321	1.553	67.02	-0.1946	0.0566	0.2512	744.2742	0.137461	-288.688929	-288.68158	-288.680636	-288.720008	26.981
C          0.02300        1.51530        0.00950
C          0.00900        0.01650        0.00160
C         -0.02240       -0.79920       -1.10620
N         -0.02450       -2.10370       -0.67940
C          0.00390       -2.13510        0.69240
C          0.02560       -0.83840        1.15270
C          0.06010       -0.39740        2.58480
H          0.91790        1.91370        0.50370
H          0.00400        1.91660       -1.00810
H         -0.84150        1.92990        0.54300
H         -0.04260       -0.55530       -2.15700
H         -0.04440       -2.90950       -1.27770
H          0.00670       -3.07060        1.22970
H          0.95080        0.20380        2.80660
H         -0.80870        0.22060        2.84390
H          0.06630       -1.25570        3.26320
