20
gdb 14148	4.00705	1.49488	1.31068	1.5617	74.68	-0.2463	0.0908	0.3372	1017.9998	0.178045	-348.998396	-348.990448	-348.989504	-349.031031	30.173
C         -0.07110        1.51290       -0.14760
C          0.04570        0.01180       -0.00510
C          1.38110       -0.68220       -0.14580
C          0.68800       -0.64330        1.19320
C          1.26530        0.12310        2.39010
C          0.74310       -0.69220        3.58690
O          0.60510       -2.02120        3.10680
C          0.06980       -1.91130        1.79780
H          0.82520        2.02330        0.21880
H         -0.20190        1.79530       -1.19800
H         -0.92890        1.90620        0.41030
H         -0.80420       -0.53400       -0.41300
H          1.42800       -1.62770       -0.67800
H          2.25940       -0.05550       -0.27600
H          2.35950        0.11120        2.36870
H          0.94230        1.16670        2.43460
H          1.42280       -0.71120        4.44240
H         -0.23100       -0.30090        3.92610
H         -1.03010       -1.82340        1.83860
H          0.32090       -2.82600        1.25240
