9
gdb 3644	10.31353	2.0564	1.71454	2.1395	52.68	-0.2707	-0.0435	0.2273	646.8846	0.056456	-334.36233	-334.35697	-334.356026	-334.391449	19.064
C          0.03420       -1.16590       -0.00430
C         -0.01220        0.03450        0.00270
C         -0.04500        1.44770        0.01070
N         -1.16890        2.16990        0.03000
N         -0.67640        3.39580        0.03020
N          0.64910        3.47000        0.01330
N          1.07170        2.23820        0.00110
H          0.07280       -2.22760       -0.01050
H         -1.26230        4.21800        0.04250
