18
gdb 11543	4.0277	1.23599	0.99475	2.4755	69.39	-0.2409	0.0337	0.2746	1179.1117	0.154315	-381.125421	-381.116581	-381.115636	-381.159708	30.963
C         -0.56720        1.01770       -0.70620
N          0.03320       -0.23820       -1.11190
C          1.23830       -0.65590       -0.63000
O          1.90050       -0.01910        0.17010
C          1.72080       -2.02320       -1.13820
C          1.06090       -2.53540       -2.39460
C          0.82850       -3.97850       -2.62840
N         -0.31430       -3.08860       -2.33880
H          0.11940        1.49670       -0.00740
H         -0.72530        1.67870       -1.56560
H         -1.53060        0.85710       -0.20900
H         -0.45940       -0.82380       -1.76790
H          2.80310       -1.93150       -1.27340
H          1.57620       -2.73910       -0.31810
H          1.21740       -1.91340       -3.27430
H          0.85440       -4.37670       -3.63830
H          1.14190       -4.67750       -1.85750
H         -0.58170       -3.21240       -1.36350
