26
gdb 5806	2.90752	1.20444	1.08293	0.0861	88.38	-0.2949	0.0729	0.3679	1311.6252	0.243923	-315.490854	-315.479996	-315.479051	-315.525805	41.242
C         -0.63830        0.95070       -1.75990
C         -0.91730        0.56160       -0.29940
C         -1.32830        1.80580        0.50310
C         -1.99510       -0.54730       -0.18250
C         -1.52070       -2.02020       -0.05620
C         -0.78670       -2.23380        1.28180
C         -2.77190       -2.91950       -0.07880
C         -0.59580       -2.43260       -1.21540
H          0.15480        1.70390       -1.82240
H         -0.33270        0.09380       -2.36550
H         -1.53700        1.37830       -2.22110
H          0.02020        0.19020        0.13400
H         -1.45620        1.57140        1.56510
H         -0.57800        2.59970        0.42090
H         -2.27950        2.21010        0.13590
H         -2.62000       -0.34100        0.69620
H         -2.66950       -0.47220       -1.04660
H         -1.43110       -1.97780        2.13040
H         -0.48580       -3.28110        1.39660
H          0.11950       -1.62430        1.35460
H         -3.31390       -2.81900       -1.02570
H         -2.50110       -3.97450        0.04050
H         -3.46250       -2.65860        0.73090
H          0.33620       -1.85930       -1.21750
H         -0.32720       -3.49190       -1.13340
H         -1.08390       -2.28950       -2.18570
