20
gdb 8418	3.3918	1.82359	1.5398	1.417	74.9	-0.2473	0.0734	0.3208	930.9359	0.176167	-348.980754	-348.972444	-348.9715	-349.012593	32.8
C         -0.04350        1.57070       -0.05400
C          0.08880        0.06670        0.07610
C          1.33260       -0.73890       -0.17400
C          2.58430       -0.02060        0.34290
C          1.97170       -0.05990        1.79200
C          2.72350       -1.01190        2.71860
O          1.74050        1.18190        2.44180
C          0.69670       -0.69070        1.22910
H          0.80950        2.10030        0.36960
H         -0.15020        1.85640       -1.10690
H         -0.93450        1.92070        0.47850
H         -0.79210       -0.46090       -0.28930
H          1.34730       -1.57070       -0.86810
H          3.49980       -0.61140        0.25720
H          2.76900        0.97740       -0.06460
H          3.71530       -0.61090        2.96380
H          2.16700       -1.14810        3.65160
H          2.86650       -1.99110        2.25250
H          2.57490        1.47940        2.82070
H          0.13960       -1.46130        1.75180
