16
gdb 18862	3.35139	2.55651	2.13513	1.5724	67.18	-0.2268	0.0068	0.2336	709.4734	0.132843	-346.57339	-346.567479	-346.566535	-346.602966	24.961
O          0.05500        1.42860        0.07460
C         -0.02340        0.03610       -0.03090
C         -1.36180       -0.68170        0.01450
C         -2.03740       -0.74970       -1.37950
C         -1.58660        0.19770       -2.44200
C         -0.24930        0.17850       -2.51770
C          0.29030       -0.69940       -1.41580
C         -0.88430       -1.65680       -1.04300
H         -0.49660        1.79250       -0.62850
H          0.64010       -0.37210        0.73470
H         -1.95360       -0.86650        0.90320
H         -3.04900       -1.13850       -1.37010
H         -2.26250        0.80630       -3.03030
H          0.37050        0.80140       -3.15040
H          1.29980       -1.08770       -1.53670
H         -0.89510       -2.73920       -1.05060
