16
gdb 12344	3.21401	2.29572	1.36184	3.0377	67.58	-0.2079	0.0151	0.223	877.4043	0.132311	-379.975206	-379.967393	-379.966449	-380.008529	27.815
C         -0.06240        1.39610        0.00910
N          0.00300       -0.05120        0.00100
C         -1.28780       -0.74030        0.00440
C         -1.14450       -2.23180       -0.00420
C          0.05970       -2.79980       -0.01480
N          1.21910       -2.04060       -0.01810
C          1.23770       -0.65190       -0.01020
O          2.29560       -0.04450       -0.01380
H          0.95270        1.78880        0.00420
H         -0.60300        1.76360       -0.87360
H         -0.59090        1.75430        0.90280
H         -1.86440       -0.40970        0.88640
H         -1.87400       -0.40050       -0.86780
H         -2.04310       -2.83390       -0.00170
H          0.20920       -3.87300       -0.02140
H          2.13010       -2.46530       -0.02600
