12
gdb 11696	5.97368	1.39637	1.29397	2.1449	57.3	-0.2646	-0.0699	0.1946	890.5882	0.081327	-418.448668	-418.441776	-418.440832	-418.480202	24.524
O          0.05490        0.08030       -0.59320
C          0.13780        1.02690        0.14420
C          1.29210        1.96170        0.18150
C          1.67960        3.00170        1.24730
C          2.09130        3.92710        0.06110
O          2.37660        5.08040       -0.02760
C          1.75470        2.83640       -0.95870
O          2.47220        1.67380       -0.54730
H         -0.66620        1.29070        0.86570
H          0.84310        3.44130        1.79870
H          2.46240        2.68410        1.93770
H          1.41950        2.88790       -1.98850
