15
gdb 8542	4.17409	1.94238	1.58627	2.5266	60.93	-0.2537	0.0609	0.3146	801.8492	0.118957	-399.693045	-399.686456	-399.685512	-399.723415	26.268
O          0.18680        1.41700       -0.11320
C          0.12480        0.02290       -0.06420
C          0.05660       -0.67360        1.30500
N         -1.43130       -0.26400        1.46960
C         -1.80730       -1.70300        1.80700
C         -0.73320       -1.90340        0.73640
O         -0.26050       -3.04630        0.12130
C         -1.25260       -0.66220       -0.02600
H         -0.45790        1.74690        0.52570
H          0.84630       -0.37450       -0.78010
H          0.73220       -0.63460        2.16180
H         -1.57690       -1.98110        2.84100
H         -2.84240       -1.95500        1.55570
H          0.16970       -3.60010        0.78240
H         -2.09930       -0.60610       -0.71190
