18
gdb 14453	3.24161	2.43117	1.96556	1.4978	71.1	-0.2318	0.0993	0.3311	776.6323	0.155431	-347.767619	-347.761095	-347.760151	-347.797871	26.484
C          0.00300        1.51250       -0.02920
C          0.01970        0.00830       -0.03840
C          0.57630       -0.95270       -1.11810
C          0.02720       -1.89720       -0.02720
C          0.60500       -0.94590        1.07250
C         -0.39680       -0.94200        2.21900
O         -1.63840       -0.94100        1.49060
C         -1.19570       -0.95550        0.14540
H          1.01840        1.92410       -0.02700
H         -0.51470        1.90490       -0.91140
H         -0.51770        1.89090        0.85710
H          0.06230       -0.95950       -2.08470
H          1.66100       -0.95000       -1.25620
H          0.02780       -2.98730       -0.01070
H          1.67360       -0.94070        1.29180
H         -0.33570       -1.83230        2.85760
H         -0.33240       -0.04970        2.85470
H         -2.04090       -0.96260       -0.54280
