19
gdb 13088	3.75837	1.27906	1.12278	3.6506	73.45	-0.247	0.0308	0.2777	1121.3378	0.16589	-365.084493	-365.076017	-365.075073	-365.118201	30.937
C         -0.18700        1.47700        0.10520
C          0.02660       -0.03340        0.07560
C          1.08850       -0.50740       -0.96220
C          2.14070       -0.58920        0.17770
C          0.97090       -0.59140        1.19450
N          1.12560        0.12920        2.43440
C          0.81250       -0.38770        3.65530
O          0.37390       -1.49970        3.85750
H          0.76230        2.02650        0.11760
H         -0.73650        1.80420       -0.78340
H         -0.76230        1.78060        0.98600
H         -0.94330       -0.53580        0.01910
H          0.85300       -1.49070       -1.37660
H          1.30310        0.17550       -1.78770
H          2.82140       -1.44320        0.19600
H          2.73680        0.32640        0.24840
H          0.68170       -1.60590        1.47130
H          1.47730        1.07340        2.40360
H          1.01200        0.33890        4.46870
