10
gdb 3938	6.14313	2.97908	2.00619	3.6923	50.41	-0.2417	-0.0763	0.1654	573.8035	0.069134	-355.510313	-355.5053	-355.504356	-355.539069	18.507
O          0.10550        1.29890        0.11930
C          0.07010       -0.03380        0.04790
N          0.09230       -0.58990       -1.16860
C          0.05450       -1.91480       -1.16610
C         -0.00300       -2.62120        0.03330
N         -0.02170       -1.98760        1.20550
N          0.01520       -0.66440        1.22650
H          0.14320        1.62540       -0.79050
H          0.07040       -2.41870       -2.12950
H         -0.03490       -3.70400        0.06960
