24
gdb 9548	2.59462	1.54074	1.44205	0.0893	84.81	-0.275	0.0808	0.3558	1099.1373	0.222766	-314.27514	-314.265628	-314.264684	-314.308431	36.656
C          0.25520        1.55660        0.20790
C          0.30580        0.03200        0.04470
C          0.73220       -0.46090       -1.35030
C         -0.19690        0.06020       -2.44500
C          2.26550       -0.26610       -1.59530
C          2.50580       -1.73680       -1.16970
C          0.99610       -2.01480       -1.39150
C          0.26600       -2.97330       -0.46080
H          1.20840        2.02330       -0.06340
H         -0.52340        2.00850       -0.41360
H          0.04140        1.82550        1.24710
H          0.99400       -0.37570        0.79560
H         -0.68130       -0.38520        0.28340
H         -0.16880        1.15210       -2.52250
H          0.08900       -0.34390       -3.42200
H         -1.23760       -0.23130       -2.25570
H          2.48920       -0.10230       -2.65380
H          2.76880        0.51280       -1.01590
H          3.21670       -2.32470       -1.75590
H          2.78510       -1.82040       -0.11450
H          0.84730       -2.34880       -2.42590
H          0.40260       -2.70750        0.59230
H         -0.81100       -2.99360       -0.66350
H          0.64260       -3.99420       -0.59200
