10
gdb 21983	5.6456	1.76332	1.34365	6.6421	51.63	-0.2917	-0.086	0.2057	799.3183	0.062384	-446.705594	-446.699678	-446.698733	-446.73666	20.44
O         -0.08670        0.02460        0.00310
N         -0.05370        1.24320        0.00720
O          0.94380        1.94650        0.00360
C         -1.34490        1.93180        0.01740
N         -1.40740        3.25060        0.02070
N         -2.73820        3.44030        0.02990
C         -3.39120        2.25490        0.03210
N         -2.52050        1.26660        0.02400
H         -3.10600        4.37960        0.03410
H         -4.46690        2.16590        0.03930
