18
gdb 9766	2.61452	2.1658	1.69022	1.8121	63.32	-0.2445	0.0787	0.3231	868.774	0.153372	-422.080093	-422.071946	-422.071002	-422.112483	30.354
C         -0.09070        1.56930        0.28190
C         -0.01700        0.07510       -0.00450
C         -1.39920       -0.54560       -0.26400
O         -1.33580       -1.95250       -0.34610
O          0.84930       -0.13310       -1.11320
C          1.73730       -1.19490       -0.79480
C          1.85680       -1.07100        0.72180
O          0.55390       -0.63910        1.10200
H          0.91260        1.95990        0.46620
H         -0.51400        2.09790       -0.57730
H         -0.71450        1.76160        1.15830
H         -2.09430       -0.21450        0.52390
H         -1.77240       -0.17990       -1.22480
H         -0.91200       -2.23480        0.47370
H          1.31180       -2.16280       -1.08750
H          2.67970       -1.03240       -1.32440
H          2.07590       -2.01240        1.23250
H          2.61270       -0.32530        1.00570
