18
gdb 13347	5.62131	1.08126	0.95699	3.6656	68.71	-0.244	-0.0184	0.2256	1202.8698	0.153601	-384.958029	-384.949646	-384.948702	-384.993854	28.707
O         -0.72390        0.88550        0.82140
C          0.05530        1.03010       -0.08630
C          1.29600        1.89720       -0.01610
C          1.40050        2.86770       -1.19110
C          2.64260        3.77430       -1.19140
C          2.88050        4.04320       -2.69770
C          1.96260        3.01040       -3.40240
O          1.51190        2.11500       -2.39310
H         -0.09190        0.52020       -1.06220
H          1.29600        2.43340        0.93690
H          2.17320        1.23600       -0.04910
H          0.49160        3.49500       -1.23140
H          2.49240        4.68720       -0.61050
H          3.48840        3.23410       -0.75460
H          2.60790        5.06370       -2.97740
H          3.92970        3.90130       -2.96560
H          1.10440        3.51200       -3.87470
H          2.47240        2.41790       -4.16630
