20
gdb 15422	4.81696	0.86069	0.81063	0.8016	72.33	-0.2593	0.0784	0.3378	1473.0992	0.175237	-386.119802	-386.110201	-386.109257	-386.154973	33.686
C          0.55880        1.36900        0.26730
C         -0.28870        0.16040       -0.15020
C          0.26710       -0.51140       -1.38300
O          1.45930       -1.29340       -1.22780
C          0.25940       -1.95940       -1.65130
C         -0.30820       -3.01600       -0.73640
C          0.54480       -4.28140       -0.74100
O         -0.08820       -5.22940        0.10460
H          1.58410        1.05920        0.49000
H          0.60100        2.11900       -0.53010
H          0.14580        1.85080        1.15830
H         -0.34060       -0.55510        0.67490
H         -1.31740        0.47950       -0.36330
H          0.29620        0.14010       -2.26140
H          0.28560       -2.25400       -2.70420
H         -0.38210       -2.65060        0.29080
H         -1.32250       -3.27350       -1.06630
H          0.63870       -4.66430       -1.77090
H          1.55720       -4.03480       -0.38830
H          0.47100       -6.01010        0.15170
