10
gdb 3876	6.36321	2.96891	2.02439	4.4835	50.91	-0.2433	-0.075	0.1683	571.0596	0.068489	-351.666551	-351.660865	-351.659921	-351.696008	19.998
N         -0.02100        1.32940        0.00800
C         -0.03260       -0.01270        0.00140
N         -1.21080       -0.65100        0.00480
C         -1.07080       -1.96640       -0.00350
N          0.08050       -2.64760       -0.01330
N          1.20200       -1.93490       -0.01610
N          1.17910       -0.62920       -0.00920
H          0.85940        1.81420        0.00530
H         -0.88940        1.83480        0.01580
H         -1.97700       -2.56760       -0.00030
