20
gdb 9382	4.9091	0.81744	0.73104	4.4692	76.93	-0.2404	0.0309	0.2713	1569.9113	0.176047	-345.195347	-345.185465	-345.184521	-345.230665	34.572
C         -0.01410        1.54460        0.10630
C         -0.08250        0.02500       -0.06220
C          0.80980       -0.48440       -1.19480
N          0.68180       -1.93230       -1.33830
C          1.41120       -2.51740       -2.45990
C          2.95320       -2.49000       -2.36630
C          0.95250       -3.90630       -2.64650
N          0.62340       -5.00520       -2.78400
H          1.00610        1.87760        0.32730
H         -0.34080        2.06010       -0.80350
H         -0.65670        1.87920        0.92570
H          0.21740       -0.46200        0.87580
H         -1.11180       -0.29380       -0.25930
H          0.49320       -0.02850       -2.14270
H          1.84660       -0.14580       -1.01750
H          0.94410       -2.40020       -0.47590
H          1.10880       -1.96260       -3.35830
H          3.40610       -2.94000       -3.25420
H          3.30650       -1.45930       -2.28460
H          3.29290       -3.04860       -1.48890
