16
gdb 2585	2.98991	2.72541	1.69876	1.8786	66.7	-0.2437	0.0434	0.2871	785.1717	0.135459	-288.581699	-288.574018	-288.573074	-288.61315	28.497
C         -0.29640        1.47190       -0.04530
C          0.18500        0.02080        0.05680
C          0.80080       -0.50220       -1.23650
C          0.62560       -1.94530       -1.58350
N         -0.10400       -0.92070       -2.33940
C          2.00340        0.17690       -1.65970
C          3.01650        0.74740       -1.96590
H          0.53230        2.13770       -0.30210
H         -1.06420        1.58280       -0.81820
H         -0.72290        1.80760        0.90440
H          0.92610       -0.06800        0.85990
H         -0.65080       -0.63660        0.32800
H          1.40170       -2.45750       -2.14340
H          0.08630       -2.56560       -0.87150
H         -1.06580       -0.86640       -2.00910
H          3.90720        1.24770       -2.25510
