11
gdb 4733	6.85909	1.38347	1.15256	5.5698	62.84	-0.2308	-0.06	0.1709	934.526	0.073831	-393.615452	-393.608849	-393.607905	-393.646206	24.063
N         -0.00000        1.39250        0.15490
C         -0.03650        0.01540        0.04740
C         -1.09530       -0.85120        0.00470
O         -0.59290       -2.12390       -0.02890
C          0.74320       -1.95640       -0.00350
N          1.13350       -0.71400        0.03990
C          1.55900       -3.11580       -0.03030
N          2.22340       -4.06290       -0.05370
H          0.88630        1.77950       -0.13740
H         -0.78160        1.87710       -0.26100
H         -2.16600       -0.75400       -0.00320
