12
gdb 875	6.52191	2.21118	1.66614	2.0293	52.69	-0.1916	0.0354	0.227	693.7941	0.090593	-360.534222	-360.527751	-360.526806	-360.564276	23.908
N          0.01540        1.35370       -0.00470
C         -0.11160       -0.03120       -0.02190
C         -1.18640       -0.85530       -0.03020
C         -0.70680       -2.21170       -0.04770
C          0.64600       -2.10480       -0.04900
O          1.60600       -3.04580       -0.06260
O          1.05260       -0.81810       -0.03390
H          0.49460        1.71780       -0.82230
H          0.49540        1.69740        0.82120
H         -2.21370       -0.52690       -0.02430
H         -1.27790       -3.12430       -0.05790
H          2.46110       -2.59990       -0.05850
