15
gdb 17597	4.36415	1.38553	1.14532	1.6006	63.84	-0.2488	-0.0913	0.1575	1031.2248	0.117206	-399.803402	-399.795075	-399.794131	-399.837189	28.627
C          0.43730        1.44460       -0.10560
C          0.45670       -0.05600        0.03180
O          0.82390       -0.64730        1.02030
C         -0.03400       -0.85390       -1.19790
O         -0.36620       -0.27150       -2.21140
C         -0.07260       -2.33260       -1.06720
C         -1.34970       -2.99510       -1.50810
N         -0.14820       -3.11160       -2.31480
H          1.04960        1.74920       -0.96030
H         -0.57930        1.78730       -0.32400
H          0.80530        1.90350        0.81200
H          0.49640       -2.76510       -0.25470
H         -1.66080       -3.89750       -0.99020
H         -2.15000       -2.34470       -1.85040
H         -0.20590       -2.44050       -3.08210
