14
gdb 3349	5.69157	2.85855	2.07487	3.6718	57.59	-0.2479	0.0183	0.2662	621.3618	0.115969	-324.551432	-324.546003	-324.545059	-324.580464	21.01
C          0.05500        1.55390       -0.11770
O          1.49970        1.36840        0.18120
C          1.19550        0.10390        0.60610
N          1.59920       -0.66630        1.51840
C          0.42650       -1.57830        1.70470
C         -0.83400       -0.78410        1.18300
C         -0.18310        0.02220        0.04830
H         -0.39660        2.19070        0.64730
H         -0.08150        1.97160       -1.11600
H          0.56780       -2.51590        1.15080
H          0.34250       -1.83350        2.76400
H         -1.65550       -1.43160        0.86800
H         -1.19850       -0.12570        1.97860
H         -0.25090       -0.47240       -0.92420
