12
gdb 3770	4.11214	3.44393	1.8967	4.5328	51.95	-0.2333	0.0149	0.2482	626.6552	0.091046	-356.687774	-356.68132	-356.680376	-356.718237	22.537
C         -0.04640        1.42780       -0.01060
N         -0.02730       -0.01750        0.04420
N         -0.18570       -0.77230       -1.08080
N         -0.12420       -2.01860       -0.72370
C          0.07270       -2.10280        0.62170
C          0.13510       -0.81950        1.11680
O          0.30830       -0.26410        2.33350
H          0.90170        1.84100        0.34440
H         -0.20060        1.70380       -1.05350
H         -0.85960        1.82760        0.60130
H          0.15500       -3.04590        1.13700
H          0.40870       -0.96450        2.98610
