11
gdb 2618	11.90423	1.06334	0.98829	5.1013	52.92	-0.3151	-0.0299	0.2853	1051.3853	0.077278	-339.431591	-339.424302	-339.423358	-339.463878	23.35
N         -0.03020       -1.12650       -0.00360
C          0.00600        0.02690        0.00220
C          0.00170        1.49040        0.01000
O          1.33580        1.95260       -0.00010
C          1.40010        3.36310        0.00670
C          2.80450        3.77460       -0.00450
N          3.90010        4.13690       -0.01300
H         -0.55450        1.84850       -0.87110
H         -0.53770        1.83900        0.90530
H          0.89730        3.79260       -0.87460
H          0.91420        3.78330        0.90180
