18
gdb 18347	3.38039	2.11182	1.49282	1.808	73.23	-0.2337	0.0251	0.2588	883.2881	0.155114	-347.805376	-347.79826	-347.797316	-347.836584	27.39
C          0.16750        1.45140        0.01020
C         -0.00750       -0.03470       -0.03640
C         -0.10670       -0.80580       -1.12410
C         -0.28710       -2.27330       -0.81370
C         -0.13670       -2.32250        0.71400
O          1.22610       -2.55950        1.14250
C          1.29220       -1.28640        1.81580
C         -0.07430       -0.86030        1.22600
H          1.08720        1.72910        0.54120
H          0.21330        1.88440       -0.99260
H         -0.65890        1.93080        0.55080
H         -0.06880       -0.42910       -2.14160
H         -1.26460       -2.64740       -1.14760
H          0.47440       -2.90900       -1.28160
H         -0.82930       -3.01290        1.20790
H          1.30160       -1.40340        2.90800
H          2.16730       -0.70050        1.50910
H         -0.81800       -0.51050        1.94750
