17
gdb 3405	3.7062	2.73646	2.16001	1.4069	63.84	-0.2486	0.0728	0.3214	693.178	0.148813	-309.685651	-309.678728	-309.677784	-309.716021	26.752
C         -0.05010        1.56070       -0.05050
C          0.08590        0.05630        0.07320
C          1.32880       -0.74450       -0.19190
C          2.58410       -0.01430        0.29810
C          1.98650       -0.04340        1.74940
O          1.79470        1.16600        2.45650
C          0.71330       -0.69210        1.22290
H          0.79670        2.08880        0.38780
H         -0.14560        1.85600       -1.10190
H         -0.94790        1.90370        0.47500
H         -0.79810       -0.47470       -0.27870
H          1.33610       -1.58120       -0.88010
H          3.50020       -0.60330        0.21090
H          2.76170        0.97830       -0.12670
H          2.54630       -0.76100        2.36450
H          2.65150        1.46290        2.77950
H          0.16520       -1.45960        1.75710
