16
gdb 7296	3.93021	1.31748	1.08856	3.6922	67.94	-0.2395	0.0392	0.2787	1081.4549	0.129134	-379.918275	-379.909174	-379.90823	-379.952382	32.292
C         -0.45080        1.31970        0.01370
N         -0.15800       -0.09620       -0.10390
C         -0.08510       -0.89390        1.11510
C         -1.33160       -0.89280        1.88080
C         -2.34760       -0.87140        2.52240
C          0.12360       -0.72630       -1.29820
N          0.13030        0.09960       -2.41690
O          0.31170       -1.92860       -1.39050
H          0.45570        1.93730        0.10630
H         -1.02930        1.66280       -0.84720
H         -1.06370        1.48020        0.90420
H          0.16770       -1.90860        0.79770
H          0.73160       -0.53230        1.75750
H         -3.24890       -0.87480        3.08400
H          0.45770        1.04760       -2.31710
H          0.50370       -0.38040       -3.22170
