19
gdb 9302	4.30233	0.91428	0.82941	4.4631	73.63	-0.247	0.0112	0.2582	1433.3957	0.163033	-402.19152	-402.181619	-402.180675	-402.22736	33.848
C         -0.05600        1.29070        0.01190
O          0.05860       -0.12570       -0.07170
C          0.58660       -0.73290        1.00680
N          0.74520       -1.98050        1.03050
C          1.33120       -2.58490        2.22230
C          0.27410       -3.42670        2.94570
C          2.51120       -3.44910        1.73990
O          2.09960       -4.39940        0.78050
H          0.92680        1.76750        0.10890
H         -0.52000        1.61590       -0.91960
H         -0.69050        1.59310        0.85370
H          0.85060       -0.05390        1.83280
H          1.72490       -1.81960        2.91460
H         -0.06820       -4.23500        2.29560
H          0.69550       -3.86810        3.85460
H         -0.58710       -2.81340        3.22560
H          3.29480       -2.78550        1.33830
H          2.94100       -4.00270        2.58230
H          1.54760       -3.90640        0.15810
