22
gdb 6056	2.83479	1.5375	1.31594	1.5739	74.18	-0.2497	0.0693	0.319	1078.58	0.196326	-387.337166	-387.326579	-387.325635	-387.371861	38.854
C          0.13190        1.35650        0.00330
O         -0.05840       -0.03660        0.09410
C         -1.40300       -0.53290        0.04720
C         -2.21200       -0.07270        1.26950
C         -2.10920       -0.12690       -1.25390
C         -1.20090       -2.07810        0.04100
C         -0.38890       -2.60890        1.21970
O         -2.44910       -2.75660       -0.07940
H          1.20960        1.52630        0.07560
H         -0.21850        1.77060       -0.95210
H         -0.35730        1.90710        0.81940
H         -2.44240        0.99500        1.21790
H         -3.16820       -0.60320        1.30780
H         -1.66720       -0.25770        2.19910
H         -1.46190       -0.32930       -2.11320
H         -3.02390       -0.71230       -1.36750
H         -2.37700        0.93360       -1.26400
H         -0.66040       -2.30630       -0.88500
H         -0.92300       -2.46890        2.16770
H         -0.20810       -3.67980        1.09090
H          0.56770       -2.08940        1.29250
H         -2.81240       -2.86370        0.80540
