14
gdb 20284	5.48185	2.14181	2.03469	1.9829	58.65	-0.2395	0.0617	0.3012	674.6645	0.108636	-382.437912	-382.432834	-382.43189	-382.466818	21.484
O         -0.02120        1.43260       -0.02720
C          1.27650        0.80980        0.03170
C          0.05630       -0.00430        0.04010
C          0.10260       -0.67520       -1.32140
C          0.68420        0.35170       -2.33590
O          1.39000       -0.71370       -3.06960
C          1.60200       -1.01690       -1.65780
C          1.86520        0.50090       -1.33350
H          1.87800        1.03380        0.90600
H         -0.37310       -0.46820        0.92140
H         -0.67820       -1.35690       -1.65160
H          0.16880        1.11810       -2.91090
H          2.19280       -1.89970       -1.40870
H          2.79120        0.95800       -1.67540
