13
gdb 9816	3.72353	1.71312	1.29717	3.945	60.8	-0.2851	-0.0896	0.1955	896.973	0.093465	-398.600221	-398.592382	-398.591437	-398.632737	28.007
O          0.03320        1.39260       -0.00350
C          0.01560        0.00280        0.02300
C         -0.53300       -0.73050        1.24470
C         -1.35150       -0.64990       -0.00250
C          1.09320       -0.69290       -0.73420
O          1.17630       -1.88980       -0.87590
C          2.12440        0.20060       -1.31090
N          2.96580        0.86230       -1.74800
H          0.72960        1.71470        0.58060
H         -0.06660       -1.67660        1.49390
H         -0.80550       -0.09250        2.07750
H         -2.18040        0.04700       -0.02860
H         -1.44920       -1.54140       -0.61030
