14
gdb 3352	5.05043	3.20186	2.36738	1.6316	56.24	-0.2434	0.0202	0.2636	582.7238	0.116148	-324.579188	-324.573788	-324.572844	-324.60855	20.542
C         -0.03360        1.51230       -0.27510
C          1.46310        1.58180        0.17010
C          1.39830        0.08960        0.60010
N          1.26350       -0.11980        2.04950
C          0.03040       -0.33360        2.25620
O         -0.85150       -0.33830        1.22220
C         -0.06240        0.00210        0.05940
H         -0.72790        2.09300        0.33610
H         -0.21680        1.74750       -1.32600
H          2.15900        1.77230       -0.65040
H          1.68760        2.26800        0.98870
H          2.16740       -0.56960        0.19110
H         -0.41910       -0.53120        3.22330
H         -0.32530       -0.68890       -0.74200
