19
gdb 5566	3.01494	1.7713	1.21958	1.8363	78.99	-0.1897	0.05	0.2397	1042.1805	0.166002	-327.977893	-327.96921	-327.968265	-328.011855	31.667
C         -0.24750        1.61550       -0.05690
C          0.04090        0.10620        0.02820
C          0.73660       -0.44000       -1.18690
C          2.08540       -0.71100       -1.32870
C          3.22950       -0.58320       -0.37630
N          2.27960       -1.16470       -2.61510
C          1.08830       -1.19080       -3.29600
C          0.11480       -0.74630       -2.43760
H          0.68230        2.18560       -0.15220
H         -0.86490        1.84620       -0.93090
H         -0.77560        1.96970        0.83510
H          0.63840       -0.09440        0.92540
H         -0.90640       -0.42810        0.17500
H          3.78960       -1.52190       -0.27720
H          3.94470        0.19100       -0.68370
H          2.86820       -0.31330        0.61840
H          3.16650       -1.45070       -2.99150
H          1.03840       -1.52800       -4.31890
H         -0.93660       -0.65250       -2.66640
