19
gdb 6953	2.55811	2.22683	1.63107	3.5571	71.04	-0.235	0.0382	0.2732	893.0905	0.16634	-365.123932	-365.115647	-365.114703	-365.156135	31.363
C         -0.03500        1.58320       -0.04530
C          0.03360        0.05460       -0.03790
C         -1.38370       -0.54610        0.05480
C          0.83150       -0.54490       -1.21810
C          1.52830       -1.79200       -0.63130
N          1.66400       -1.43450        0.76970
C          0.82210       -0.44300        1.19270
O          0.70120       -0.04750        2.33310
H          0.96230        2.02580       -0.13510
H         -0.64440        1.94430       -0.88070
H         -0.47570        1.94050        0.88940
H         -1.99670       -0.20770       -0.78730
H         -1.36270       -1.64120        0.03750
H         -1.86830       -0.23490        0.98440
H          0.20430       -0.79070       -2.07870
H          1.59100        0.16930       -1.55150
H          0.91930       -2.69810       -0.76220
H          2.50300       -1.97880       -1.09290
H          2.16400       -1.99430        1.44230
