16
gdb 6319	4.41771	1.05181	1.01072	3.8142	63.14	-0.2484	-0.027	0.2214	1180.7354	0.128897	-417.110603	-417.101492	-417.100548	-417.145209	31.82
C          0.15000        1.53980       -0.16630
C         -0.05140        0.03790        0.02900
N         -1.44650       -0.37660        0.03590
C         -2.07260       -0.68330        1.23320
N         -3.44680       -0.82560        1.12510
O         -1.47660       -0.79910        2.28690
C          0.70600       -0.79970       -0.99510
O          1.56320       -0.38030       -1.72770
H          1.21600        1.77310       -0.20950
H         -0.29570        1.87660       -1.10840
H         -0.30640        2.09420        0.65700
H          0.32890       -0.26520        1.01490
H         -2.02540       -0.01010       -0.70520
H         -3.82290       -1.15110        0.24740
H         -3.85890       -1.25830        1.93760
H          0.38930       -1.86730       -1.00970
