16
gdb 19704	5.69568	1.83024	1.66188	1.3564	68.27	-0.2175	0.0084	0.2259	790.2632	0.132032	-346.539877	-346.533848	-346.532904	-346.56956	25.127
O         -0.02970        1.44910       -0.07560
C          0.02490        0.04280        0.00300
C          0.01500       -0.63340        1.39500
C         -1.49110       -0.20100        1.58960
C         -2.18320       -1.34400        2.31470
C         -1.64890       -2.43870        1.77060
C         -0.66270       -1.89660        0.74670
C         -1.34510       -0.64410        0.08020
H          0.85910        1.79240        0.05710
H          0.73160       -0.37380       -0.72800
H          0.79760       -0.63650        2.15950
H         -1.72750        0.83380        1.82330
H         -2.93350       -1.25140        3.08720
H         -1.84070       -3.48220        1.97670
H         -0.07050       -2.58090        0.13760
H         -2.13360       -0.65520       -0.67640
