13
gdb 20476	6.40433	1.42377	1.26206	2.3742	59.76	-0.2693	-0.0182	0.2511	911.2736	0.096265	-398.565047	-398.558688	-398.557744	-398.596207	23.072
C          0.89260        0.98030       -0.09090
O         -0.02700        0.20660       -0.85590
C         -0.44830        0.66480        0.43250
C         -0.64940       -0.38170        1.45600
N         -1.45750       -0.16430        2.46810
O         -1.41640       -1.32170        3.23570
C         -0.58800       -2.20050        2.65140
C         -0.06220       -1.67970        1.51640
H          1.75610        0.44030        0.29400
H          1.09300        1.98250       -0.46650
H         -1.20410        1.44740        0.42630
H         -0.48080       -3.14890        3.15460
H          0.61320       -2.13580        0.81340
