13
gdb 4890	5.03023	1.51941	1.20822	3.893	56.73	-0.2058	0.036	0.2418	937.4125	0.095282	-435.775534	-435.768069	-435.767125	-435.807833	26.165
C         -0.06100        1.38120       -0.09060
O          0.49760        0.07970        0.14840
C          0.82260       -0.61560       -0.93790
C          0.59400       -1.89110       -1.27230
N          1.28480       -2.09250       -2.48130
C          1.89920       -0.93810       -2.88720
O          2.55460       -0.70090       -3.86370
O          1.60870       -0.00300       -1.89310
H          0.64700        2.01580       -0.62950
H         -0.99270        1.29910       -0.66180
H         -0.26510        1.80290        0.89370
H          0.03690       -2.66060       -0.77080
H          1.32520       -2.93800       -3.02120
