13
gdb 1450	8.178	1.49631	1.28869	6.333	53.67	-0.2511	-0.0073	0.2438	884.9329	0.101046	-377.82658	-377.818602	-377.817658	-377.859713	26.01
C          0.09140        1.45660       -0.14120
N         -0.06070        0.01270       -0.08440
C         -1.30200       -0.53850        0.13570
O         -2.29530        0.09650        0.39000
N         -1.26170       -1.95450        0.07840
C         -2.34470       -2.82100        0.05270
O         -3.50550       -2.52690       -0.01680
H          1.08270        1.73950        0.22280
H         -0.04260        1.85290       -1.15560
H         -0.67060        1.89910        0.50040
H          0.62650       -0.54000       -0.57140
H         -0.35550       -2.39610        0.12520
H         -1.98340       -3.87030        0.09190
