14
gdb 558	9.64201	2.2122	1.97612	2.8867	54.48	-0.2459	-0.023	0.2229	636.1846	0.119748	-270.431243	-270.425177	-270.424232	-270.46122	21.345
O          0.54470       -0.26460       -0.22220
C          0.24000        0.88290       -0.01970
C          1.19150        2.04130        0.05760
C          0.86100        3.29020       -0.82170
C          1.24170        4.20060        0.37450
C          1.07520        2.97280        1.30690
H         -0.82930        1.17370        0.13170
H          2.21090        1.68190       -0.09860
H          1.41750        3.39550       -1.75490
H         -0.20960        3.34210       -1.04640
H          2.28320        4.52860        0.31860
H          0.61340        5.07280        0.56780
H          0.07090        2.92640        1.74120
H          1.80570        2.82020        2.10360
