22
gdb 6938	4.5736	0.97436	0.91632	1.038	80.31	-0.2479	0.0858	0.3337	1387.0003	0.197918	-350.187989	-350.178066	-350.177122	-350.222749	35.838
C          0.04670        1.35110        0.23720
O         -0.03260       -0.05090        0.29320
C         -1.25640       -0.55000       -0.21330
C         -1.21680       -2.05340       -0.15230
C         -1.58390       -2.79240        1.11450
C         -2.45530       -2.92790       -0.11290
C         -3.84430       -2.31370       -0.09600
C         -2.38600       -4.23540       -0.88190
H          1.02080        1.64190        0.63870
H         -0.03780        1.72780       -0.79550
H         -0.74180        1.83280        0.83850
H         -2.09810       -0.14650        0.37270
H         -1.39790       -0.20690       -1.25380
H         -0.38070       -2.46490       -0.71250
H         -0.97120       -3.63490        1.41810
H         -1.96200       -2.19970        1.94210
H         -3.89320       -1.40290        0.50570
H         -4.18390       -2.06620       -1.10900
H         -4.56620       -3.02280        0.32630
H         -3.06930       -4.97860       -0.45360
H         -2.66840       -4.09340       -1.93210
H         -1.37740       -4.65940       -0.86200
