12
gdb 3766	7.72177	2.23031	1.75239	2.5088	52.99	-0.2308	-0.0127	0.2182	680.5865	0.092268	-352.866322	-352.859988	-352.859044	-352.896443	22.39
C          0.00680        1.38870        0.05860
N         -0.00810       -0.05760        0.04970
N         -0.06550       -0.76510       -1.06050
N         -0.06260       -2.02770       -0.70000
C         -0.00430       -2.02280        0.65670
N         -0.04270       -3.17170        1.40960
N          0.03480       -0.79330        1.16680
H          0.92010        1.74850        0.53840
H         -0.02920        1.71930       -0.97860
H         -0.86010        1.76660        0.60570
H          0.26390       -3.99060        0.90570
H          0.37170       -3.08580        2.32530
