14
gdb 1970	7.37564	1.55802	1.38055	2.1305	54.52	-0.2545	0.0242	0.2787	837.9924	0.113556	-361.728293	-361.721276	-361.720332	-361.759573	25.178
O          0.06520        1.43850        0.14160
C          0.04210        0.05860       -0.18280
C         -1.35550       -0.53210       -0.07170
C         -1.46860       -2.08430       -0.05830
C         -2.11190       -1.91290        1.33960
O         -2.63140       -2.62910        2.14910
N         -1.89110       -0.54840        1.30490
H         -0.05790        1.51110        1.09370
H          0.39230       -0.02190       -1.21770
H          0.73200       -0.51690        0.45320
H         -2.02950       -0.04310       -0.78340
H         -2.14110       -2.51670       -0.80030
H         -0.52010       -2.62610       -0.06260
H         -2.35940        0.17720        1.82960
