16
gdb 8352	4.73656	1.53437	1.4083	3.7478	66.3	-0.2398	0.0198	0.2596	903.8514	0.132017	-379.863591	-379.856572	-379.855628	-379.896114	26.152
O         -0.10470        0.37170       -1.00830
C         -0.02100        1.26040       -0.19040
N          1.12390        1.66180        0.43780
C          2.41780        1.08620        0.22300
C          2.78950       -0.06400       -0.72290
N          4.14680        0.29680       -0.08210
C          3.71250        1.75470       -0.29910
C          3.35500        0.38000        1.23220
H         -0.89390        1.85750        0.14240
H          1.04780        2.41900        1.10050
H          2.43650       -1.06520       -0.47320
H          2.74540        0.12280       -1.79650
H          3.74060        2.06960       -1.34500
H          4.22960        2.46480        0.35250
H          3.84550        0.98720        1.99840
H          3.04810       -0.59380        1.62150
