17
gdb 12028	3.68979	1.73443	1.5242	3.999	71.86	-0.2762	0.0374	0.3135	890.5879	0.142546	-326.715846	-326.708366	-326.707422	-326.747215	28.761
C         -0.09360        1.57550        0.04340
C          0.03870        0.04830        0.03310
C          1.13410       -0.60100       -0.90970
C          1.76140       -1.28800        0.30760
C          2.18920       -0.26120        1.31310
C          0.73600       -0.63800        1.23570
C         -1.26860       -0.55960       -0.21090
N         -2.30690       -1.03330       -0.39790
H          0.87620        2.04200        0.23180
H         -0.46710        1.93830       -0.91880
H         -0.78930        1.90070        0.82230
H          0.69740       -1.28840       -1.63430
H          1.76880        0.11830       -1.43680
H          2.13550       -2.30330        0.32090
H          2.70170       -0.64750        2.18820
H          2.54260        0.71550        0.99260
H          0.20250       -1.06000        2.07790
