16
gdb 3296	4.65397	2.66529	2.15405	1.5127	59.65	-0.2097	0.0599	0.2697	657.5896	0.138048	-325.720699	-325.714314	-325.71337	-325.751034	24.264
O         -0.15650        1.45940        0.28430
C         -0.00560        0.07990        0.03830
C          0.35760       -0.85250        1.23070
N         -0.86470       -1.68930        0.99980
C         -2.00380       -1.28570        1.88790
C         -2.47990       -0.20300        0.88180
C         -1.34010       -0.68580       -0.04300
H          0.71840        1.85570        0.34330
H          0.62710       -0.09640       -0.84190
H          1.28570       -1.42410        1.13010
H          0.36340       -0.32990        2.19510
H         -2.70670       -2.11320        2.02570
H         -1.69160       -0.93300        2.87700
H         -3.48610       -0.34560        0.48330
H         -2.37160        0.83100        1.21210
H         -1.62790       -1.07240       -1.02430
