14
gdb 20408	4.8988	2.13188	1.52513	1.8443	63.06	-0.2049	0.0036	0.2085	777.7902	0.111965	-374.897228	-374.891167	-374.890223	-374.927264	23.221
C          0.02350        1.41750        0.09960
C          1.49670        1.92930       -0.07890
C          2.23720        0.63050       -0.00100
N          3.46850        0.15480        0.10070
N          3.26710       -1.16550        0.03550
N          1.98600       -1.59150       -0.09210
C          1.34190       -0.43690       -0.12340
N          0.02990       -0.01840       -0.30780
H         -0.27210        1.52160        1.15270
H         -0.68690        1.98010       -0.51060
H          1.62830        2.40880       -1.05610
H          1.76270        2.66200        0.68660
H          4.02200       -1.81890        0.15340
H         -0.69350       -0.58400        0.11470
