17
gdb 6170	3.52771	1.45462	1.32907	14.8691	68.94	-0.1663	-0.0307	0.1356	983.6688	0.141465	-400.946882	-400.93845	-400.937506	-400.979667	31.127
C          0.17430        1.55490       -0.19190
C          0.11630        0.06630        0.00400
N         -1.16780       -0.50660       -0.57500
H         -1.25060       -0.32210       -1.58010
H         -1.20200       -1.51710       -0.41890
H         -1.97700       -0.08780       -0.10700
C          1.28080       -0.86670       -0.10700
C          0.58670       -0.67340        1.22650
C          1.32050        0.15460        2.35640
O          2.17240        0.95330        1.90940
O          0.92470       -0.10520        3.49440
H          1.06390        1.88760        0.35440
H          0.25070        1.83070       -1.25140
H         -0.69850        2.05650        0.24630
H          1.17250       -1.79470       -0.66410
H          2.25010       -0.38140       -0.16680
H         -0.05510       -1.47260        1.59450
