16
gdb 12913	3.23662	1.69733	1.35069	3.6453	66.29	-0.2336	-0.0214	0.2122	939.6358	0.129032	-383.704071	-383.696415	-383.695471	-383.736111	28.033
C         -0.01680        1.56840        0.01010
C         -0.01290        0.06930        0.04870
C         -1.24800       -0.83140        0.09830
O         -0.55020       -1.79970        0.93080
C          0.58380       -0.93510        0.98830
C          1.21260       -0.76480       -0.38160
C          1.20280       -1.83500       -1.40660
O          2.04720       -1.94330       -2.26530
H          0.96520        1.97200        0.27360
H         -0.26890        1.93980       -0.98950
H         -0.74890        1.97600        0.71610
H         -2.07220       -0.37530        0.65900
H         -1.62930       -1.26530       -0.83160
H          1.13010       -0.86260        1.92200
H          2.12250       -0.17060       -0.38550
H          0.36760       -2.55980       -1.32900
