20
gdb 7670	3.54378	1.7819	1.61497	1.7852	74.04	-0.2381	0.0772	0.3153	910.8449	0.176938	-348.97548	-348.967645	-348.966701	-349.007432	30.654
C         -0.42490        1.58400       -0.00740
C         -0.05830        0.10270        0.01790
C         -1.28170       -0.75850       -0.30320
C          1.19110       -0.30240       -0.84800
C          1.89730       -0.82230        0.41840
O          2.71460        0.18640        1.05440
C          1.66700        0.49930        2.00230
C          0.67560       -0.43750        1.29880
H          0.44680        2.22600        0.14830
H         -0.85640        1.85220       -0.97870
H         -1.16770        1.82590        0.76210
H         -1.66150       -0.53770       -1.30730
H         -1.04090       -1.82670       -0.26610
H         -2.09220       -0.57460        0.41190
H          0.97350       -1.07220       -1.59470
H          1.72600        0.52020       -1.32880
H          2.38670       -1.79990        0.39640
H          1.93850        0.17000        3.01440
H          1.43450        1.56990        2.03300
H          0.11200       -1.13280        1.92140
