12
gdb 11688	5.48257	1.43633	1.31344	1.1247	61.43	-0.2667	-0.0512	0.2155	882.4458	0.083829	-377.497729	-377.491119	-377.490175	-377.528695	24.383
O          0.04430        0.02640       -0.05320
C          0.01520        1.21350        0.04110
C         -1.13680        2.25730        0.14470
C         -0.05600        3.33470       -0.06200
N          0.86890        3.19170        1.07820
C          1.06130        2.30900       -0.10760
C         -0.16050        4.53490       -0.82120
N         -0.25590        5.51510       -1.42920
H         -1.82540        2.14900       -0.69680
H         -1.68370        2.31770        1.08640
H          1.57870        3.92320        1.01520
H          1.98820        2.31300       -0.66700
