18
gdb 9781	3.03554	1.62862	1.40431	1.0128	73.33	-0.2516	0.0449	0.2964	979.1464	0.151102	-347.757941	-347.749089	-347.748145	-347.790829	33.627
C          0.09320        1.40960       -0.33260
C          0.04090       -0.08900        0.02570
C          0.66160       -0.34470        1.32810
C          1.11500       -0.54080        2.42520
C         -1.39980       -0.60990        0.04670
O         -2.20700        0.00050        1.01440
C         -2.09560       -0.92900       -1.23730
C         -1.68170       -2.04910       -0.29650
H          1.11960        1.78310       -0.30240
H         -0.30940        1.56750       -1.33730
H         -0.51070        1.98280        0.37420
H          0.59120       -0.65510       -0.73690
H          1.54620       -0.72080        3.37890
H         -1.81570       -0.20240        1.87410
H         -3.14990       -0.68360       -1.28910
H         -1.55220       -0.80810       -2.16840
H         -0.85790       -2.69270       -0.58640
H         -2.46920       -2.53720        0.26610
