16
gdb 17302	3.17937	2.48207	1.88471	2.4881	63.07	-0.2377	0.0586	0.2963	751.389	0.130742	-383.669175	-383.662672	-383.661728	-383.699327	26.441
O         -0.05250        1.41020       -0.05670
C          0.02070        0.02260        0.00350
C         -1.33930       -0.68940        0.07340
O         -0.87640       -1.52700        1.16780
C          0.38320       -0.81470        1.25260
C          1.58420       -1.44230        0.50430
C          1.11850       -2.15800       -0.72780
C          1.19000       -0.65610       -0.76080
H          0.84360        1.76410       -0.07030
H         -2.14420       -0.01750        0.39380
H         -1.66270       -1.27440       -0.79440
H          0.57620       -0.39110        2.24080
H          2.56440       -1.60850        0.93490
H          1.89890       -2.65980       -1.29100
H          0.16820       -2.67990       -0.71750
H          1.81490       -0.13140       -1.47610
