20
gdb 17346	4.00692	1.26383	1.07212	1.3887	75.97	-0.2394	0.0809	0.3203	1159.1488	0.176177	-348.97183	-348.963081	-348.962137	-349.005464	32.837
C         -0.26890        1.51810        0.04270
C         -0.01530        0.02630        0.03810
C          1.33920       -0.53270       -0.32830
C          0.83070       -0.66110        1.08960
C          1.48750        0.08790        2.20670
C          0.83240        0.16080        3.57740
C          2.08290       -0.65630        3.37080
O          1.99460       -2.05250        3.34380
H          0.61320        2.08040        0.36280
H         -0.53500        1.87180       -0.95980
H         -1.09070        1.78280        0.71760
H         -0.86600       -0.55710       -0.30680
H          1.39870       -1.42220       -0.94610
H          2.13750        0.18230       -0.50700
H          0.50170       -1.65270        1.38160
H          2.04040        0.97290        1.90550
H          0.88880        1.08280        4.14620
H         -0.09110       -0.39630        3.70140
H          3.01440       -0.27210        3.78700
H          1.79290       -2.35220        4.23600
