14
gdb 1110	5.12958	1.82838	1.62036	2.203	55.55	-0.2761	-0.008	0.2681	802.9087	0.110816	-361.758902	-361.750809	-361.749864	-361.792213	26.97
C          0.29220        1.11380       -0.11060
C         -0.49880       -0.11220        0.24830
N         -1.08930       -0.40940        1.31850
O         -0.67320       -1.01060       -0.81160
C          0.41010       -1.67900       -1.30160
C         -0.01140       -2.58460       -2.42970
O          1.52440       -1.55650       -0.86910
H          1.32260        0.83210       -0.33950
H         -0.13400        1.58600       -1.00170
H          0.28600        1.83160        0.71170
H         -0.96520        0.33180        2.00790
H         -0.51630       -2.00680       -3.20880
H          0.86470       -3.08560       -2.83900
H         -0.72670       -3.32440       -2.05930
