15
gdb 3038	10.31662	1.15692	1.11966	4.2414	62.18	-0.2382	0.024	0.2622	1026.7322	0.125443	-304.679494	-304.672165	-304.671221	-304.711474	25.874
N         -0.04760       -1.09190       -0.04810
C          0.03430        0.04980        0.10540
C          0.15830        1.49300        0.32580
N          1.22030        2.06150       -0.49960
C          1.38880        3.47720       -0.29760
C          2.01940        4.05590        0.95590
C          2.75700        4.07820       -0.36690
H         -0.79170        1.96710        0.04960
H          0.28830        1.66580        1.40880
H          2.09000        1.56610       -0.33660
H          0.57940        4.05390       -0.73950
H          1.63640        4.98930        1.35410
H          2.37460        3.35970        1.70910
H          3.59920        3.40290       -0.48350
H          2.87900        5.02300       -0.88380
