19
gdb 12918	3.00019	1.68279	1.37449	2.283	71.08	-0.228	0.0628	0.2908	986.9694	0.1654	-365.011525	-365.003223	-365.002279	-365.04414	31.214
C          0.19330        1.30360        0.28850
C          0.05130       -0.17680        0.08570
C         -0.65900       -0.81460       -1.11490
C         -1.34880       -1.75300       -0.09730
N         -0.68710       -1.07970        1.07930
C          0.77710       -1.18980        0.89130
C          1.51530       -2.40050        0.36060
O          2.88630       -2.09590        0.13540
H          0.95510        1.71950       -0.38240
H         -0.74970        1.82270        0.08450
H          0.48940        1.52950        1.31680
H         -1.35870       -0.12910       -1.59760
H         -0.02730       -1.26050       -1.89000
H         -2.42780       -1.60180       -0.02970
H         -1.15550       -2.82680       -0.17730
H          1.28830       -0.77380        1.75850
H          1.50900       -3.19550        1.11420
H          1.04870       -2.80760       -0.54530
H          2.92060       -1.38230       -0.51020
