16
gdb 5728	4.79124	2.05247	1.48985	4.2875	69.94	-0.211	0.039	0.25	823.7298	0.135528	-342.834686	-342.828633	-342.827689	-342.864828	23.611
C          0.01350        1.52940       -0.02150
C          1.51750        1.90320       -0.00610
N          2.10600        0.73370        0.63110
C          3.29010        0.36880        1.19300
N          3.26660       -0.89410        1.56980
C          2.01700       -1.36660        1.22560
C          1.28190       -0.36850        0.63990
C         -0.02530       -0.02720       -0.01010
H         -0.45960        1.91150        0.88770
H         -0.50890        1.96400       -0.87630
H          1.91840        2.03070       -1.01910
H          1.72490        2.81510        0.55970
H          4.11850        1.05060        1.31330
H          1.72950       -2.38690        1.42860
H         -0.89480       -0.41060        0.52990
H         -0.08050       -0.42580       -1.03130
