11
gdb 727	9.28026	3.56436	2.61716	3.1194	48.06	-0.2527	-0.0071	0.2456	483.7794	0.08558	-285.293918	-285.288674	-285.28773	-285.322634	18.293
C          0.02640        1.49440        0.02870
C         -0.08500        0.01110        0.04490
C         -1.09570       -0.85880       -0.23080
C         -0.50820       -2.13260       -0.01130
N          0.74330       -2.04510        0.36320
O          1.01560       -0.67770        0.39970
H          0.80320        1.82130       -0.67020
H         -0.92300        1.94010       -0.27340
H          0.29230        1.87820        1.01900
H         -2.10050       -0.62710       -0.54150
H         -0.95590       -3.11130       -0.11360
