10
gdb 23643	4.14905	2.00795	1.35311	4.9839	50.42	-0.2841	-0.0717	0.2124	779.5238	0.062567	-454.816162	-454.810464	-454.80952	-454.846346	20.679
F          0.03620        0.09400        0.00310
C         -0.02080        1.40540        0.01080
N         -1.19590        1.93600        0.02970
C         -1.27820        3.31410        0.03760
O         -2.28440        3.97350        0.05630
N         -0.00350        3.96910        0.02450
C          1.15030        3.28730        0.00510
N          1.20990        1.98670       -0.00280
H         -0.02310        4.98000        0.03050
H          2.07030        3.86650       -0.00400
