15
gdb 1065	7.25818	1.95273	1.55954	1.3933	63.62	-0.1704	0.0575	0.2278	778.171	0.127208	-304.720708	-304.713909	-304.712965	-304.751168	25.578
C         -0.01090        1.42330       -0.04580
N          0.03190       -0.00970        0.17390
C         -1.17780       -0.70820        0.06810
C         -2.45460       -0.17990        0.05510
N         -3.34020       -1.24050        0.00460
C         -2.65240       -2.41910       -0.02870
C         -1.30820       -2.12930        0.01270
H          1.00410        1.82680       -0.00970
H         -0.47190        1.71220       -1.00610
H         -0.58710        1.90110        0.75510
H          0.77260       -0.45700       -0.34780
H         -2.80430        0.83750        0.08460
H         -4.33950       -1.15150       -0.01440
H         -3.16650       -3.36560       -0.07540
H         -0.50070       -2.84570        0.01220
