15
gdb 12977	2.80144	2.73893	1.63998	3.7115	66.57	-0.2328	-0.0573	0.1755	791.9268	0.119474	-362.664928	-362.657993	-362.657048	-362.695793	26.459
C         -0.04020        1.53210        0.01560
C          0.11420        0.03830        0.02700
N         -0.77030       -0.83190        0.85980
C          0.70410       -0.78620        1.10320
C          1.39570       -1.93880        0.44280
C          1.23480       -1.90030       -0.88700
C          0.47100       -0.68160       -1.27620
O          0.20660       -0.29440       -2.38950
H          0.87440        2.01720       -0.33940
H         -0.84970        1.82290       -0.66080
H         -0.26410        1.91520        1.01630
H         -1.23120       -0.22600        1.54170
H          1.07220       -0.36380        2.03130
H          1.90740       -2.71530        0.99930
H          1.57690       -2.62730       -1.61170
