16
gdb 15696	3.51308	1.7633	1.24338	1.1761	61.24	-0.231	-0.0342	0.1968	954.4929	0.129572	-420.875227	-420.867356	-420.866412	-420.907894	27.924
C         -0.06010        1.44420        0.06940
O         -0.02380        0.04710       -0.18330
C         -1.25220       -0.60310       -0.01520
C         -1.21980       -2.01270       -0.61430
O         -2.18990       -2.75400        0.12330
C         -2.09740       -2.35840        1.48020
C         -1.60530       -0.91240        1.45750
O         -1.46980       -0.17900        2.40100
H          0.94000        1.82560       -0.14770
H         -0.78420        1.94480       -0.59180
H         -0.31780        1.66020        1.11070
H         -2.08270       -0.02170       -0.45240
H         -1.50000       -2.05580       -1.66750
H         -0.20730       -2.42840       -0.49440
H         -3.07630       -2.45540        1.95850
H         -1.37550       -2.97160        2.04560
