16
gdb 296	5.16119	3.14248	2.83176	1.888	56.09	-0.2425	0.0728	0.3154	569.1031	0.142192	-271.618179	-271.611373	-271.610429	-271.649191	24.362
C         -0.13900        1.56140        0.00280
C          0.00430        0.04240        0.00760
C         -1.33060       -0.65270       -0.25190
C          1.18290       -0.51750       -0.83370
O          1.80450       -1.10130        0.32750
C          0.80250       -0.54700        1.20170
H          0.82090        2.05360        0.18930
H         -0.51730        1.91780       -0.96220
H         -0.84210        1.89270        0.77560
H         -1.74290       -0.36160       -1.22480
H         -1.21820       -1.74170       -0.24660
H         -2.06790       -0.38680        0.51430
H          0.92040       -1.27390       -1.58470
H          1.82220        0.24210       -1.30400
H          1.22490        0.19590        1.89210
H          0.29050       -1.32260        1.78580
