22
gdb 6987	2.34225	2.16912	1.54952	1.6579	76.87	-0.2388	0.0707	0.3095	967.3841	0.200044	-350.221267	-350.212309	-350.211365	-350.254066	34.134
C         -0.62620        1.29480       -0.00660
C          0.11690       -0.03860       -0.05830
C          1.27770       -0.07160       -1.07150
O          2.25910       -0.97430       -0.56120
C          1.77100       -1.55570        0.64090
C          0.79730       -0.53230        1.25240
C          1.59030        0.58010        1.96020
C         -0.19350       -1.17980        2.22330
H          0.04730        2.12660        0.22170
H         -1.10090        1.51120       -0.96970
H         -1.41700        1.28250        0.75070
H         -0.60380       -0.81640       -0.34440
H          0.94630       -0.40170       -2.06510
H          1.73970        0.91900       -1.18860
H          1.24890       -2.50450        0.43120
H          2.62990       -1.77610        1.28380
H          2.33830        1.02420        1.29670
H          0.93490        1.37910        2.31990
H          2.11910        0.17310        2.82880
H          0.32390       -1.60600        3.09030
H         -0.91350       -0.44700        2.60380
H         -0.75790       -1.98520        1.74060
