17
gdb 1866	5.40475	1.93763	1.51858	2.8932	64.05	-0.2344	-0.0117	0.2228	821.8412	0.148652	-309.763576	-309.75657	-309.755626	-309.794547	26.394
C         -0.15340        1.53300       -0.00240
C          0.07700        0.02440        0.02660
C          0.85160       -0.52190       -1.19720
C          1.32230       -1.91680       -0.76350
C          1.50860       -1.81330        0.75700
O          2.03390       -2.63640        1.46060
C          0.90660       -0.48180        1.21930
H          0.80060        2.07290       -0.02190
H         -0.72220        1.82910       -0.89050
H         -0.70980        1.87160        0.87770
H         -0.89980       -0.47900        0.05540
H          0.24300       -0.53100       -2.10550
H          1.71770        0.12310       -1.39440
H          0.54720       -2.67350       -0.94420
H          2.23440       -2.27640       -1.24570
H          1.74490        0.20190        1.42010
H          0.35860       -0.59850        2.15740
