16
gdb 7258	4.45554	1.18707	1.05373	5.2688	63.77	-0.2443	-0.0352	0.2091	1125.7145	0.129509	-417.100694	-417.091692	-417.090747	-417.134929	31.152
C          0.12710        1.58850       -0.04190
C         -0.01740        0.05100        0.00200
N          0.35830       -0.62950       -1.22850
C          0.87590       -0.48820        1.12860
O          1.99310       -0.89450        0.93390
N          0.28350       -0.41600        2.39490
C          0.85820       -0.71310        3.63030
O          1.98680       -1.06410        3.82740
H          1.16950        1.86380       -0.22930
H         -0.49070        1.99490       -0.84910
H         -0.19250        2.06130        0.89330
H         -1.06470       -0.18890        0.24170
H          0.18660       -0.03230       -2.03010
H          1.35700       -0.81950       -1.19080
H         -0.68190       -0.12110        2.42410
H          0.11010       -0.57420        4.43780
