17
gdb 3433	4.62395	2.64092	1.91915	0.2434	69.54	-0.2166	0.0317	0.2483	717.8665	0.149804	-272.589999	-272.583609	-272.582665	-272.619815	25.214
C         -0.01650        1.49180        0.06330
C         -0.01030       -0.00360        0.00520
C          0.01710       -0.77630       -1.08700
C         -0.01300       -2.25470       -0.76140
C          0.05470       -2.28290        0.76590
C          1.25930       -1.67640        1.43680
C          0.00670       -0.84220        1.24640
H          0.85930        1.87300        0.60380
H         -0.02150        1.93450       -0.93640
H         -0.89820        1.86250        0.60190
H          0.07490       -0.40510       -2.10490
H         -0.93500       -2.72670       -1.12870
H          0.81690       -2.80300       -1.22690
H         -0.47770       -3.06200        1.29840
H          1.48680       -2.02110        2.44050
H          2.12800       -1.42650        0.83520
H         -0.55740       -0.53100        2.12000
