18
gdb 14931	4.31281	1.43525	1.12536	3.5225	76.6	-0.2455	-0.0474	0.1981	1053.393	0.155423	-347.847508	-347.840115	-347.839171	-347.879239	28.068
O         -0.10350       -0.02990       -0.00120
C         -0.02870        1.17870        0.01450
C          1.23310        1.93850        0.01000
C          1.17410        3.27940        0.01890
C          2.38010        4.17190        0.02960
C          3.67400        3.40250        0.33970
C          3.71360        2.06730       -0.41500
C          2.53340        1.17320       -0.01170
H         -0.94600        1.81130        0.03400
H          0.19660        3.76080        0.01100
H          2.45510        4.66850       -0.95020
H          2.22850        4.98580        0.75010
H          4.54400        4.01810        0.08930
H          3.72640        3.20720        1.41840
H          3.67030        2.26150       -1.49480
H          4.65910        1.54830       -0.22750
H          2.70710        0.73570        0.98120
H          2.43050        0.31730       -0.68670
