15
gdb 18336	3.50691	2.26579	1.58896	2.8236	60.6	-0.2442	0.0233	0.2676	789.229	0.121599	-399.822338	-399.815888	-399.814944	-399.8532	24.264
O         -0.06180        0.02650        0.29150
C         -0.04390        1.22330        0.10430
N         -1.13530        2.04920        0.05680
C         -0.88060        3.44520       -0.25050
C          0.64980        3.54260       -0.16500
O          1.12060        3.82310        1.17010
C          1.82860        2.56300        1.23540
C          1.19160        2.10230       -0.09260
H         -2.06010        1.66550        0.16910
H         -1.24440        3.71500       -1.25140
H         -1.33850        4.12150        0.47970
H          1.07450        4.23490       -0.89830
H          2.91480        2.70610        1.18710
H          1.57570        1.98460        2.13000
H          1.85090        1.70930       -0.86470
