17
gdb 17207	4.48073	1.82626	1.59012	2.2543	68.22	-0.2192	0.0708	0.2901	846.4987	0.143204	-363.789515	-363.782782	-363.781838	-363.820449	26.505
C         -0.27740        1.36450        0.06270
C          1.16360        0.89860       -0.04470
C          0.04020       -0.09230       -0.00040
N         -0.20990       -1.07040        1.08640
C         -0.50140       -2.12300        0.07230
C         -1.98600       -2.15200       -0.33400
O         -1.76810       -1.14850       -1.36090
C         -0.35690       -1.09830       -1.07950
H         -0.60800        1.75350        1.01970
H         -0.74430        1.82440       -0.80170
H          1.69080        1.03950       -0.98350
H          1.79110        0.99150        0.83690
H          0.63790       -1.27960        1.60470
H          0.04000       -3.06340        0.17130
H         -2.33350       -3.09450       -0.77540
H         -2.68170       -1.81810        0.44280
H          0.25740       -1.17750       -1.98020
