18
gdb 11251	5.2117	1.2816	1.13084	0.8818	79.53	-0.2439	0.0174	0.2613	1085.5396	0.153493	-310.650187	-310.642132	-310.641188	-310.682642	30.626
C          0.59720        1.64090       -0.08260
C         -0.11520        0.29230        0.12380
C          0.09270       -0.70710       -1.04720
C          1.20640       -1.69510       -0.57430
C          1.16490       -1.52990        0.93910
C          0.44830       -0.47110        1.30320
C          1.01120       -3.06590       -1.03390
C          0.84530       -4.19590       -1.41000
H          1.66780        1.49570       -0.26340
H          0.17670        2.17860       -0.93900
H          0.49390        2.28200        0.79930
H         -1.18430        0.49640        0.26330
H         -0.82410       -1.27650       -1.21840
H          0.35490       -0.21290       -1.98620
H          2.18870       -1.35950       -0.94050
H          1.69800       -2.20400        1.59890
H          0.31400       -0.13430        2.32610
H          0.70040       -5.19370       -1.74240
