18
gdb 17855	4.86696	1.56368	1.47878	2.0734	71.25	-0.2401	0.0735	0.3137	911.508	0.155	-347.74465	-347.737703	-347.736759	-347.775893	26.74
C         -0.06440        1.46010       -0.12170
C          1.49960        1.50950       -0.06250
C          1.52870       -0.01470        0.10700
C         -0.01030       -0.06330        0.04860
C          0.82140       -0.67620       -1.02990
C          0.87080       -0.43050       -2.53780
O          0.92510       -1.85440       -2.78320
C          0.88140       -2.16260       -1.37410
H         -0.52300        1.96850        0.72880
H         -0.53960        1.82500       -1.03850
H          2.01870        1.90570       -0.94160
H          1.85970        2.04380        0.81910
H          2.21060       -0.56910        0.74260
H         -0.70200       -0.66110        0.63210
H         -0.02230        0.02750       -2.98320
H          1.76450        0.08390       -2.91540
H          1.78080       -2.69910       -1.04270
H         -0.00500       -2.75540       -1.11040
