20
gdb 12544	3.23768	1.78512	1.22466	1.2088	76.98	-0.2408	0.0222	0.263	1026.2031	0.178242	-349.008063	-349.000054	-348.99911	-349.040488	30.487
C          0.00570        1.60990       -0.06690
C         -0.01670        0.07540       -0.02650
C          0.85170       -0.50090       -1.15190
O          0.52640       -1.84000       -1.46550
C          1.16800       -2.82890       -0.69450
C          0.83820       -2.88660        0.77590
C          0.50940       -1.90340        1.61400
C          0.38740       -0.42050        1.37090
H          1.02410        1.99480        0.06610
H         -0.37090        1.98780       -1.02280
H         -0.61310        2.03580        0.72920
H         -1.03850       -0.26840       -0.23200
H          0.67540        0.06890       -2.07160
H          1.92350       -0.40470       -0.90570
H          0.88530       -3.78050       -1.15850
H          2.26640       -2.74310       -0.80770
H          0.93410       -3.88770        1.19510
H          0.35400       -2.18800        2.65370
H          1.35330        0.04220        1.63630
H         -0.32490       -0.01100        2.09850
