14
gdb 15132	10.03805	0.67222	0.65883	2.0856	69.35	-0.2548	-0.0344	0.2204	1610.8646	0.104301	-382.489311	-382.480841	-382.479897	-382.524784	27.93
O         -0.26170        0.07610        0.36490
C          0.36910        0.74340       -0.40750
C          1.11650        2.01960       -0.00680
C          1.04910        3.04910       -1.03170
C          0.96930        3.87120       -1.90850
C          0.85380        4.85160       -2.95370
C          1.66550        6.08560       -2.95410
O          1.97620        5.01640       -3.83660
H          0.47080        0.47210       -1.48020
H          0.72100        2.36090        0.95550
H          2.16520        1.73080        0.16320
H         -0.10990        4.88270       -3.46090
H          1.26100        6.98340       -3.41970
H          2.37380        6.24880       -2.14420
