9
gdb 23827	4.06839	2.02185	1.35063	2.0836	47.53	-0.2857	-0.0952	0.1905	770.1361	0.048095	-474.61317	-474.607336	-474.606392	-474.643671	20.62
F          0.04250        0.07170        0.00380
C         -0.06410        1.37080        0.01040
N         -1.20160        1.93160        0.02950
C         -1.19770        3.33080        0.03740
O         -2.19490        4.00640        0.05440
C          0.16260        3.94200        0.02220
N          1.27290        3.31150        0.00380
O          1.15910        1.89620       -0.00260
H          0.24850        5.02460        0.02670
