13
gdb 11629	3.5269	1.91113	1.51823	1.6034	67.14	-0.2477	-0.007	0.2407	827.8402	0.095038	-361.370266	-361.363512	-361.362568	-361.401149	25.643
O         -0.04030       -0.02830       -0.14330
C         -0.03730        1.14730        0.02480
C         -0.96370        2.37980        0.05270
C         -0.02410        2.98460        1.12750
C          0.94430        2.37410        0.06730
N         -0.00990        2.98640       -0.97520
C          2.36480        2.44650       -0.02070
C          3.56520        2.46710       -0.08710
H         -2.04220        2.47100       -0.04300
H         -0.01480        4.07530        1.12530
H         -0.02460        2.54380        2.12420
H          0.00240        2.43950       -1.84200
H          4.62560        2.48970       -0.14690
