18
gdb 16454	3.17372	2.86127	1.84798	0.1326	75.67	-0.217	0.0091	0.226	771.0793	0.155182	-310.61619	-310.60986	-310.608916	-310.646012	26.822
C          0.01270        1.54870       -0.02670
C          0.03600        0.03550       -0.00880
C          0.46780       -0.69900       -1.27740
C          0.38950       -1.99190       -0.96360
C         -0.08540       -1.98100        0.47850
C          0.64510       -0.78990        1.20070
C         -0.62760       -0.53270        2.04060
C         -1.14300       -0.82450        0.61210
H          1.00790        1.95050       -0.24810
H         -0.66980        1.91800       -0.80050
H         -0.31000        1.97320        0.92820
H          0.76410       -0.22790       -2.20510
H          0.60410       -2.86460       -1.56430
H         -0.24500       -2.91500        1.01840
H          1.68850       -0.77620        1.53060
H         -0.86380       -1.28140        2.80210
H         -0.77740        0.47420        2.43660
H         -2.17810       -0.85100        0.25790
