18
gdb 15272	2.97685	1.55921	1.2948	3.2975	63.92	-0.2436	0.0617	0.3054	1011.4985	0.152613	-422.032219	-422.023381	-422.022437	-422.065615	32.018
C          0.16130        1.03800        0.21210
O         -0.19480       -0.07570       -0.58960
C         -1.42830       -0.63540       -0.26290
C         -1.56650       -2.06420       -0.68660
O         -0.44850       -2.68790       -1.26100
C         -1.51420       -1.73360        0.79470
C         -0.28800       -2.19660        1.56300
O         -0.14190       -3.60610        1.53670
H          1.13050        1.39300       -0.14440
H         -0.57600        1.84700        0.11280
H          0.24130        0.76270        1.27180
H         -2.27270        0.04510       -0.37550
H         -2.50010       -2.40330       -1.12540
H          0.18570       -1.98740       -1.46470
H         -2.45800       -1.80270        1.32820
H          0.60870       -1.69990        1.16840
H         -0.37810       -1.91520        2.61700
H         -0.04200       -3.83370        0.60350
