20
gdb 10992	2.62946	2.29837	1.84558	1.6763	73.82	-0.2385	0.0857	0.3242	864.9729	0.177759	-349.001002	-348.99337	-348.992426	-349.032234	30.474
C         -0.18270        1.63890       -0.05830
C          0.02230        0.13470        0.01560
C          1.17200       -0.61050       -0.70630
C          2.46140        0.08740       -0.22620
C          2.11080        0.11370        1.29310
C          0.72900       -0.58170        1.20600
C          0.03030       -0.99530        2.47060
O          1.03120       -1.68010        0.27710
H          0.73540        2.20230        0.12900
H         -0.55350        1.93050       -1.04720
H         -0.92740        1.96510        0.67630
H         -0.91090       -0.39830       -0.18750
H          1.10800       -0.94630       -1.74180
H          3.34070       -0.52130       -0.44590
H          2.60830        1.07850       -0.66420
H          2.80200       -0.47930        1.89650
H          2.06000        1.12030        1.71750
H         -0.20460       -0.11710        3.08140
H         -0.90130       -1.52330        2.24850
H          0.66840       -1.65840        3.06440
