13
gdb 19491	3.70865	2.08774	1.89228	3.7365	61.83	-0.2661	-0.0275	0.2387	732.431	0.097593	-357.629807	-357.623593	-357.622648	-357.660236	23.123
N          0.00070       -1.15410       -0.10180
C          0.01880       -0.00010       -0.02830
C         -0.00680        1.43780        0.05020
C          0.51370        2.15190        1.25810
C          1.42290        1.39960        2.23050
N          2.59860        1.01210        1.43190
C          2.42630        1.46080        0.25900
N          1.25100        2.24780       -0.01620
H         -0.82780        1.88790       -0.50000
H         -0.01510        3.04190        1.58160
H          1.73440        2.04890        3.05520
H          0.96750        0.50540        2.66860
H          3.13220        1.31720       -0.55210
