16
gdb 9178	7.59548	0.93682	0.84272	3.4361	68.21	-0.2429	0.003	0.2459	1351.762	0.12886	-417.093862	-417.084561	-417.083617	-417.128754	30.773
C          0.32000        1.32560        0.05070
O         -0.00440       -0.05510       -0.13230
C         -1.32370       -0.34720        0.02820
O         -2.17680        0.45150        0.29940
N         -1.47260       -1.70830       -0.17900
C         -2.63680       -2.46890       -0.12330
N         -3.78560       -2.02070        0.13530
C         -4.87830       -2.96810        0.14780
H          1.39550        1.39990       -0.11210
H         -0.21850        1.94930       -0.66740
H          0.06380        1.65380        1.06140
H         -0.62080       -2.19910       -0.39730
H         -2.42280       -3.52750       -0.33710
H         -4.57550       -4.00530       -0.07640
H         -5.36360       -2.95440        1.13050
H         -5.63570       -2.66330       -0.58340
