20
gdb 16498	3.50612	2.23333	1.89173	0.1784	77.71	-0.241	0.0968	0.3378	817.6008	0.179828	-311.835904	-311.829332	-311.828388	-311.865989	28.042
C          0.01250        1.46540       -0.00080
C         -0.01000       -0.04320       -0.01240
C         -0.88470       -0.80900        0.95430
C          0.61970       -0.92670        1.05240
C          1.37430       -1.94010        0.16690
C          0.37140       -2.27990       -0.96880
C          0.51440       -0.76670       -1.27830
C          2.02100       -0.96340       -0.87710
H          0.96580        1.85570       -0.37660
H         -0.78360        1.88230       -0.63010
H         -0.12990        1.85790        1.01140
H         -1.35040       -0.20260        1.72630
H         -1.50250       -1.64390        0.64600
H          1.13150       -0.51010        1.91370
H          1.95080       -2.71720        0.67030
H          0.84130       -2.89030       -1.74290
H         -0.60620       -2.69970       -0.73000
H          0.22190       -0.34910       -2.24320
H          2.56210       -0.09570       -0.48910
H          2.61300       -1.47110       -1.64410
