18
gdb 17001	3.65666	2.21781	1.98484	1.3166	70.06	-0.2114	0.0823	0.2937	775.362	0.155886	-347.762067	-347.755612	-347.754668	-347.792218	26.506
C          0.00370        1.28140       -0.14500
C          1.39410        0.67860       -0.03650
C          1.71850        0.31560        1.43070
C          0.46980       -0.63720        1.46130
C          0.16560       -0.19880        0.02570
O          0.07990       -1.05560       -1.06850
C          1.02120       -0.57950       -2.04770
C          2.11460        0.25080       -1.29570
H         -0.37520        1.89340        0.66930
H         -0.30290        1.61420       -1.13030
H          2.66240       -0.22310        1.53990
H          1.71430        1.15210        2.13640
H          0.75650       -1.68940        1.50660
H         -0.30450       -0.44640        2.21030
H          1.42260       -1.44830       -2.57730
H          0.50210        0.05120       -2.78200
H          2.49150        1.06000       -1.92950
H          2.96580       -0.38550       -1.03100
