12
gdb 3143	4.58423	2.75041	1.96809	2.7418	52.25	-0.2727	-0.0005	0.2721	636.5598	0.090153	-360.476593	-360.470684	-360.469739	-360.506347	21.568
N         -0.05690        1.21470       -0.27200
C         -0.04510       -0.00450        0.00580
O          0.97690       -0.84660        0.41640
C          0.09930       -2.01870        0.44010
C         -1.06540       -1.10940        0.05020
C         -2.48080       -1.08510        0.41760
O         -2.04550       -1.37530       -0.91810
H          0.86810        1.63700       -0.18070
H          0.39000       -2.74930       -0.31850
H          0.07170       -2.47210        1.43350
H         -2.90570       -1.92550        0.96400
H         -2.97530       -0.12490        0.54720
