16
gdb 11760	4.75059	1.73533	1.5765	0.7203	75.7	-0.2307	0.0087	0.2394	844.8418	0.131162	-309.400561	-309.39403	-309.393086	-309.430815	26.983
C          0.02610       -1.21560       -0.00800
C          0.01510       -0.01260       -0.00380
C          0.01180        1.42690        0.01280
C         -0.30060        2.26810        1.31330
C          0.36420        3.40000        0.46070
C          1.33480        2.28770       -0.05960
C         -0.62250        3.47680       -0.71350
C         -0.85560        2.19760       -1.00940
H          0.03460       -2.27720       -0.01300
H         -1.35260        2.38370        1.58100
H          0.29700        1.95270        2.17340
H          0.72640        4.32520        0.90540
H          2.08280        1.97410        0.67420
H          1.77890        2.42130       -1.04780
H         -1.01400        4.37590       -1.16710
H         -1.48130        1.74030       -1.76140
