16
gdb 11805	3.50227	1.85002	1.38792	1.5016	66.83	-0.2477	0.0206	0.2683	904.7923	0.131019	-379.894601	-379.88705	-379.886105	-379.926309	28.643
N          0.07120        1.32540       -0.40650
C          0.05000       -0.08600       -0.09770
C          0.14510       -0.59470        1.34410
N          0.96190       -0.44900        2.28370
O         -1.05910       -1.27450        1.28740
C         -1.31700       -0.77020       -0.04720
C         -2.65000       -0.24640       -0.44690
C         -2.09740       -1.53560       -1.04970
H         -0.43470        1.84740        0.30340
H          1.02670        1.66790       -0.39090
H          0.75760       -0.60440       -0.75190
H          0.65200       -0.92940        3.13050
H         -3.46130       -0.33920        0.26660
H         -2.66900        0.64680       -1.06240
H         -1.75970       -1.52810       -2.08090
H         -2.54700       -2.46700       -0.72330
