13
gdb 5174	5.94678	1.46031	1.17241	6.6073	63.22	-0.2079	-0.0026	0.2053	935.1082	0.097672	-394.833774	-394.826818	-394.825873	-394.865689	24.896
O         -0.30980        0.06770        0.00510
C         -0.08880        1.25580        0.00920
N          1.15800        1.82590       -0.00020
C          2.35770        1.11190       -0.01620
C          2.65640       -0.22830       -0.03100
N          4.02490       -0.40070       -0.04280
C          4.54250        0.79930       -0.03580
N          3.57080        1.76820       -0.01950
H         -0.87990        2.02970        0.02090
H          1.20040        2.83310        0.00290
H          1.96400       -1.05070       -0.03300
H          5.59290        1.04760       -0.04170
H          3.71950        2.76330       -0.01070
