16
gdb 6267	3.01327	1.41366	1.20009	4.199	67.02	-0.2407	-0.0864	0.1543	1057.694	0.128079	-379.920959	-379.911866	-379.910922	-379.955482	30.971
C          0.59110        0.63080       -0.59060
N         -0.38370       -0.22160        0.07830
C          0.12550       -0.76520        1.32900
C         -1.67330        0.41780        0.21400
C         -2.42260        0.45830       -1.10940
O         -3.11030        1.37170       -1.48410
C         -2.28850       -0.76160       -1.94160
N         -2.25170       -1.69650       -2.62120
H          1.50680        0.06290       -0.77560
H          0.20380        0.96350       -1.55860
H          0.85190        1.52860       -0.00050
H          0.34780        0.01080        2.08430
H         -0.60200       -1.46180        1.75550
H          1.04860       -1.31810        1.13300
H         -2.29620       -0.17940        0.89420
H         -1.64800        1.44730        0.61210
