22
gdb 17056	3.53649	1.43196	1.22605	0.1039	82.96	-0.2853	0.0973	0.3827	1118.5426	0.201057	-313.023599	-313.015321	-313.014377	-313.05621	32.19
C          0.03760        1.45810       -0.22700
C          0.20750       -0.06630       -0.25410
C          0.79160       -0.60320        1.04850
C         -0.06400       -0.74940        2.35420
C         -0.72980       -2.00180        1.71280
C          0.79040       -2.12760        1.39970
C          1.03000       -1.73060        2.89620
C          2.37770       -1.25770        3.42230
H          0.99040        1.95980       -0.02360
H         -0.33870        1.83440       -1.18340
H         -0.66810        1.76390        0.55290
H         -0.75340       -0.53170       -0.49410
H          0.88680       -0.33870       -1.07330
H          1.75660       -0.11390        1.21000
H         -0.56230        0.04630        2.91280
H         -1.14160       -2.73840        2.40880
H         -1.40790       -1.84220        0.87500
H          1.28370       -2.93060        0.84660
H          0.61590       -2.46910        3.59300
H          2.86890       -0.51560        2.78870
H          2.26000       -0.81390        4.41740
H          3.06250       -2.10700        3.52530
