19
gdb 8149	3.68102	1.75502	1.59455	2.6454	70.67	-0.228	0.068	0.2961	898.8208	0.167082	-365.058859	-365.051309	-365.050364	-365.090058	30.065
C          0.24950        1.42510       -0.24350
C         -0.12890        0.01020        0.11300
C         -1.60760       -0.35860        0.19850
C         -1.66310       -1.70880        0.93770
O         -1.64560       -2.73660       -0.06040
C         -0.39100       -1.73060        1.82040
C          0.60470       -0.84360        1.09320
N          0.77990       -1.05110       -0.35350
H          1.33580        1.54340       -0.23270
H         -0.10370        1.68310       -1.24880
H         -0.18910        2.14300        0.45920
H         -2.14550        0.40730        0.77000
H         -2.09230       -0.44020       -0.78000
H         -2.57530       -1.80370        1.54070
H         -1.58900       -3.58630        0.38910
H         -0.60880       -1.31130        2.81090
H         -0.03160       -2.75540        1.97840
H          1.48800       -0.49770        1.62410
H          0.25060       -1.86560       -0.65950
