15
gdb 14079	3.93671	1.62878	1.35847	3.0329	63.62	-0.2692	0.0028	0.272	925.6372	0.117892	-399.774251	-399.766782	-399.765838	-399.806052	27.296
C         -0.05330        1.50540       -0.11660
C         -0.00500        0.00750        0.02140
O          1.28740       -0.61900       -0.08080
C          0.63200       -0.65800        1.16140
C          1.17270       -0.14370        2.49550
O          0.67880       -1.36750        3.12920
C          0.23780       -1.89300        1.92340
N         -0.29510       -2.98900        1.64160
H          0.76420        1.97850        0.43380
H          0.03070        1.79390       -1.16900
H         -1.00480        1.89210        0.26320
H         -0.79290       -0.55080       -0.48480
H          2.26120       -0.07400        2.55990
H          0.69690        0.74250        2.92260
H         -0.40200       -3.58390        2.46460
