13
gdb 3742	7.40863	2.06036	1.62881	0.8201	56.55	-0.2082	0.0243	0.2325	725.2407	0.102836	-340.646339	-340.639599	-340.638655	-340.677607	23.655
C         -0.06890        1.41880        0.06810
N          0.01950       -0.02190       -0.02280
C          0.13400       -0.77290       -1.15390
C          0.12170       -2.09030       -0.74050
O          0.22380       -3.16990       -1.56470
C         -0.00750       -2.03220        0.66200
N         -0.07150       -0.76810        1.08690
H          0.72960        1.88740       -0.51440
H         -1.03570        1.78330       -0.29630
H          0.04230        1.68640        1.11850
H          0.21640       -0.33510       -2.13470
H          0.19140       -3.96800       -1.02930
H         -0.04930       -2.84650        1.37140
