11
gdb 731	9.39394	3.54635	2.61617	4.1169	47.56	-0.2499	0.0027	0.2526	482.4411	0.086525	-281.476938	-281.471586	-281.470642	-281.506126	18.403
C          0.00220        1.50220        0.04310
C          0.05870        0.01290       -0.05060
C         -0.13790       -0.81450       -1.13180
N          0.03780       -2.06090       -0.63050
N          0.32670       -2.02650        0.68180
N          0.33960       -0.77380        1.03310
H          0.96000        1.91030        0.38090
H         -0.23630        1.94780       -0.92590
H         -0.75830        1.82110        0.76280
H         -0.37640       -0.62900       -2.16550
H         -0.02020       -2.94990       -1.10040
