12
gdb 1400	7.03993	1.47308	1.26905	0.9885	54.96	-0.2841	-0.0074	0.2767	860.1507	0.09046	-319.573727	-319.566389	-319.565445	-319.605346	25.146
N         -0.08650        1.49610        0.07670
C          0.01570        0.04740        0.01740
C          0.69680       -0.54500       -1.26220
C          0.00010       -0.09640       -2.46280
N         -0.57890        0.29150       -3.38450
C          0.74350       -0.44990        1.19540
N          1.34430       -0.85740        2.09340
H          0.82980        1.93010        0.01910
H         -0.64200        1.83470       -0.70300
H         -1.00230       -0.35680        0.06660
H          1.74160       -0.21970       -1.30520
H          0.69660       -1.63950       -1.22210
