17
gdb 1320	4.81793	1.84886	1.65677	0.9315	71.46	-0.2376	0.0512	0.2888	825.8861	0.146088	-272.548325	-272.540333	-272.539389	-272.579699	30.183
C         -0.07630        1.53390       -0.03980
C          0.00300        0.02130       -0.01350
C         -1.23830       -0.68550       -0.52250
C          1.33440       -0.63000       -0.26220
C          0.74220       -0.65610        1.14410
C          1.34380        0.09750        2.20340
C          1.84240        0.72280        3.10310
H          0.82190        1.99140        0.38120
H         -0.19570        1.89340       -1.06840
H         -0.93450        1.89110        0.54060
H         -1.43850       -0.41540       -1.56610
H         -1.13040       -1.77360       -0.47550
H         -2.11950       -0.40850        0.06730
H          1.36550       -1.57070       -0.80200
H          2.19720        0.00850       -0.41540
H          0.32780       -1.61110        1.45670
H          2.28340        1.27300        3.89650
