17
gdb 3185	4.4312	2.32825	1.87777	1.7263	63.6	-0.2626	0.0923	0.3549	744.0882	0.147568	-309.689751	-309.68254	-309.681596	-309.720745	27.184
C          0.07490        1.58750       -0.47680
C         -0.06360        0.13550       -0.07390
C          1.06590       -0.78780       -0.26690
O          0.75940       -0.26570        1.03170
C         -1.47070       -0.39460       -0.04230
C         -1.82630       -1.58460        0.80590
C         -2.30660       -0.21070        1.20230
H          1.12120        1.90120       -0.44630
H         -0.30810        1.74550       -1.49090
H         -0.49930        2.22740        0.20110
H          0.87310       -1.85170       -0.39540
H          1.99560       -0.42510       -0.70380
H         -1.99270       -0.29320       -0.99040
H         -2.54590       -2.29570        0.41610
H         -1.03170       -2.01340        1.40540
H         -1.82650        0.24850        2.05960
H         -3.35750        0.03000        1.08760
