16
gdb 14674	4.24544	0.78851	0.70249	4.3571	71.23	-0.2666	0.0019	0.2685	1585.5426	0.128025	-383.734631	-383.725253	-383.724308	-383.771884	30.732
C          0.77780        1.05890        0.16370
C         -0.20760        0.01550       -0.39310
C          0.21480       -0.55570       -1.66670
C          0.57790       -1.01690       -2.71840
C          1.01920       -1.58870       -3.98150
O          1.77610       -2.80480       -3.80830
C          3.08290       -2.65970       -3.51070
O          3.80240       -3.58970       -3.30690
H          1.76290        0.61440        0.32810
H          0.89490        1.89420       -0.53190
H          0.41390        1.45260        1.11700
H         -0.33830       -0.79580        0.33420
H         -1.19870        0.47020       -0.51670
H          0.16820       -1.87680       -4.60420
H          1.61410       -0.86330       -4.55210
H          3.40660       -1.60080       -3.48960
