20
gdb 8196	2.66394	2.4139	1.63394	0.2216	79.83	-0.2208	0.0256	0.2464	892.0496	0.177113	-311.879573	-311.871661	-311.870717	-311.910983	31.471
C         -0.01330        1.50990       -0.05350
C         -0.03010        0.00290        0.05070
C          1.23180       -0.77850       -0.23500
C          0.65870       -0.77670        1.17460
C          1.42280       -0.15900        2.32230
C         -0.24840       -1.93760        1.43930
C         -1.32730       -1.92760        0.65490
C         -1.35300       -0.71460       -0.24850
H          0.95160        1.92920        0.24650
H         -0.20140        1.83290       -1.08470
H         -0.78600        1.96280        0.57900
H          1.17640       -1.69620       -0.81270
H          2.13240       -0.19370       -0.40300
H          1.99600        0.71580        2.00180
H          0.75080        0.15750        3.12820
H          2.13520       -0.87570        2.74820
H         -0.01000       -2.69890        2.17510
H         -2.09690       -2.69090        0.63230
H         -2.21360       -0.06720       -0.02410
H         -1.44660       -0.98660       -1.30850
