13
gdb 21525	3.55333	1.91272	1.30553	3.7915	57.71	-0.2267	-0.0183	0.2084	868.0054	0.09538	-431.894337	-431.886896	-431.885952	-431.926004	27.165
N         -0.14490        1.34160       -0.13220
C         -0.08160       -0.01270       -0.05370
C         -1.11820       -0.92990        0.02900
C         -2.58470       -0.65790        0.01920
O         -2.92470        0.33470       -0.95820
N         -0.52510       -2.15260        0.11020
N          0.71760       -2.11050        0.09970
O          1.07560       -0.62790       -0.01910
H          0.68380        1.82010       -0.44830
H         -1.02680        1.69300       -0.47980
H         -3.13150       -1.59650       -0.13630
H         -2.92830       -0.23100        0.96840
H         -2.70960       -0.03270       -1.82310
