18
gdb 16594	2.52045	2.16775	1.98422	2.6774	66.73	-0.2354	0.0583	0.2936	827.6985	0.153924	-384.904884	-384.897134	-384.89619	-384.936291	30.444
C         -0.17960        1.60230       -0.04440
C          0.05230        0.09420       -0.04410
C          0.69630       -0.57500       -1.26490
C          2.15410       -0.24390       -1.40330
O          2.73520        0.99900       -1.13660
C          1.77550       -1.24030       -0.35360
C          1.18040       -0.53570        0.85690
O          2.11700        0.33630        1.49220
H          0.72480        2.14770       -0.31580
H         -0.95730        1.86390       -0.77000
H         -0.52540        1.94950        0.93750
H         -0.88570       -0.41540        0.20080
H          0.13990       -1.03020       -2.07670
H          2.60310       -0.69970       -2.28390
H          2.82660        1.06250       -0.17520
H          2.15380       -2.25550       -0.34440
H          0.76590       -1.23160        1.59530
H          1.64560        0.87030        2.14060
