17
gdb 15779	4.59082	1.09525	0.9618	4.2724	68.92	-0.249	0.0347	0.2837	1189.82	0.142939	-360.019676	-360.011136	-360.010192	-360.053203	30.563
N         -0.22620        1.66830       -0.09200
C          0.01880        0.22770       -0.08110
C         -1.32290       -0.50820        0.13730
C         -1.94640       -0.19940        1.42160
N         -2.43530        0.01590        2.44580
C          0.70400       -0.30720       -1.32850
C          2.18330       -0.32020       -1.42110
N          1.43260       -1.58550       -1.30940
H          0.65420        2.16790       -0.17330
H         -0.77730        1.92350       -0.90800
H          0.66500        0.01360        0.78110
H         -2.01980       -0.24350       -0.66810
H         -1.16810       -1.59050        0.07190
H          0.13560       -0.15260       -2.24680
H          2.67490       -0.16210       -2.37640
H          2.74940        0.02470       -0.55850
H          1.49660       -1.93340       -0.35410
