13
gdb 1508	4.91691	1.67289	1.26797	1.9397	52.13	-0.2649	-0.084	0.1809	899.3761	0.099196	-381.624797	-381.616995	-381.61605	-381.658026	25.381
C         -0.21760        1.43560        0.39160
C          0.06670       -0.00440        0.01630
O          0.68700       -0.64080        1.15890
C          1.00790       -1.92110        1.00540
O          0.83240       -2.59090        0.01700
C          1.65870       -2.51960        2.25830
O          1.86530       -1.91950        3.27460
H          0.70610        1.96250        0.64530
H         -0.68860        1.94910       -0.45170
H         -0.89250        1.48930        1.25000
H         -0.84440       -0.55610       -0.23530
H          0.74720       -0.08520       -0.83710
H          1.91650       -3.58680        2.10450
