13
gdb 21106	3.87539	1.95849	1.31179	4.2195	69.53	-0.2469	-0.0347	0.2123	866.9523	0.0958	-357.613624	-357.606381	-357.605437	-357.645378	25.829
C         -0.03390        1.43690        0.04090
N         -0.01180       -0.01230        0.06550
N         -0.03180       -0.71590       -1.07810
N         -0.00450       -1.98500       -0.77050
C          0.03350       -2.11090        0.57640
C          0.02940       -0.84770        1.14510
C          0.05810       -0.39860        2.47740
C          0.08270       -0.00270        3.61440
H          0.86420        1.84020        0.51560
H         -0.06800        1.73810       -1.00540
H         -0.91510        1.81380        0.56610
H          0.06100       -3.06980        1.06700
H          0.10560        0.33560        4.62090
