14
gdb 3231	5.42525	2.69389	2.33684	3.4609	56.56	-0.2172	0.0596	0.2769	612.3895	0.112643	-324.471313	-324.465359	-324.464415	-324.500637	23.345
C         -0.03540        1.53880        0.05180
C          0.09100        0.04980        0.02470
N         -0.83190       -0.87710        0.71690
C          0.62710       -0.92610        1.00200
C          1.31310       -1.72260       -0.16490
O          0.31950       -2.12600       -1.10590
C          0.77590       -0.77580       -1.13980
H          0.89260        2.01930       -0.27830
H         -0.84060        1.88150       -0.60900
H         -0.25390        1.89690        1.06370
H         -1.25260       -0.34600        1.48120
H          1.02620       -0.77460        1.99650
H          2.24350       -2.27580       -0.12900
H          1.17210       -0.38750       -2.07110
