16
gdb 17101	4.48986	1.75145	1.73513	3.4521	64.57	-0.2429	-0.0277	0.2152	808.9747	0.131352	-383.719539	-383.71306	-383.712116	-383.750361	24.997
O         -0.12960        0.06000       -0.21180
C          0.03910        1.20120        0.12660
C          1.32700        1.98520       -0.02960
O          2.47200        1.15960       -0.25620
C          2.95270        1.64680       -1.52720
C          2.87960        3.18380       -1.36240
C          1.35370        2.85340       -1.31660
C          1.66560        1.74610       -2.37750
H         -0.78560        1.80280        0.57870
H          1.46310        2.59820        0.87430
H          3.84470        1.09360       -1.81310
H          3.34650        3.61860       -0.47520
H          3.15830        3.73210       -2.26360
H          0.57450        3.60400       -1.44020
H          1.83120        2.16590       -3.37060
H          1.02870        0.86180       -2.41620
