14
gdb 5293	5.07869	1.54679	1.19461	5.2453	65.36	-0.221	-0.0004	0.2206	939.0039	0.109831	-378.794343	-378.787331	-378.786386	-378.825747	26.576
N         -0.04680        1.35590       -0.01410
C          0.02210       -0.02000       -0.13550
O          1.07980       -0.59220       -0.33060
C         -1.26630       -0.73690       -0.05350
C         -2.55060       -0.22420       -0.10540
N         -3.42000       -1.27170       -0.01010
C         -2.72160       -2.45400        0.09970
C         -1.38560       -2.15350        0.07120
H          0.84850        1.81020        0.08730
H         -0.80200        1.75740        0.51790
H         -2.90940        0.78360       -0.24100
H         -4.42170       -1.19320       -0.04010
H         -3.23920       -3.39530        0.18900
H         -0.55820       -2.84130        0.13300
