18
gdb 3595	5.21055	1.8639	1.56141	1.2155	69.08	-0.2233	0.0902	0.3135	848.9338	0.159699	-289.795007	-289.7876	-289.786655	-289.826492	27.767
C         -0.12120        1.53700       -0.19780
C          0.00240        0.04560        0.02410
C          1.30360       -0.66210       -0.15910
N          0.70870       -0.53880        1.16850
C          1.35900        0.30990        2.12700
C          0.70340        0.44470        3.47520
C          1.96630       -0.37050        3.32490
H          0.82560        2.06200       -0.04910
H         -0.45010        1.73400       -1.22370
H         -0.86230        1.97700        0.47850
H         -0.90390       -0.50680       -0.22290
H          1.34950       -1.66610       -0.57410
H          2.17030       -0.04080       -0.38510
H          1.89070        1.18550        1.75110
H          0.75660        1.40220        3.98110
H         -0.22330       -0.09850        3.61960
H          1.86960       -1.44890        3.36810
H          2.89240        0.02480        3.72720
