14
gdb 1069	7.41932	2.02645	1.60798	2.4475	59.51	-0.1888	0.0518	0.2406	745.1256	0.114821	-324.595526	-324.588995	-324.588051	-324.625787	24.264
C          0.01410        1.39080        0.00800
O          0.02440       -0.02120        0.00280
C         -1.20060       -0.60970        0.01030
C         -2.45100       -0.02360        0.02190
N         -3.37110       -1.05410        0.02560
C         -2.72680       -2.25880        0.01660
C         -1.37200       -2.02220        0.00700
H          1.05630        1.71440        0.00120
H         -0.49680        1.79020       -0.87970
H         -0.48320        1.78370        0.90620
H         -2.76300        1.00600        0.02780
H         -4.36700       -0.92950        0.03370
H         -3.27780       -3.18550        0.01770
H         -0.58290       -2.75680       -0.00150
