15
gdb 11177	3.885	1.53881	1.34074	3.4532	66.75	-0.2437	0.0214	0.2652	932.6668	0.119674	-362.675655	-362.668274	-362.66733	-362.707572	27.64
O          0.04390       -0.01670        0.00510
C         -0.02860        1.18820        0.06770
C         -1.29430        2.04960        0.11050
C         -0.79380        3.45480        0.46910
C          0.68710        3.46380       -0.01940
N          1.04210        2.05430        0.10540
C          0.84370        3.97280       -1.38630
C          0.97980        4.38810       -2.50600
H         -1.74930        2.01630       -0.88540
H         -2.01670        1.63740        0.81640
H         -1.36810        4.26250        0.01530
H         -0.79890        3.59570        1.55330
H          1.30520        4.07050        0.65200
H          1.96060        1.71500       -0.13730
H          1.10030        4.75210       -3.49670
