20
gdb 12010	3.10622	1.98104	1.7132	1.2074	73.61	-0.2583	0.0729	0.3312	881.9664	0.17789	-349.011971	-349.004251	-349.003307	-349.043189	31.339
C         -0.05540        1.54380       -0.01300
C          0.04040        0.01820       -0.00770
O         -1.27420       -0.55750        0.04320
C          0.82780       -0.56070       -1.21250
C          1.33560       -1.94070       -0.74020
C          1.53680       -1.77780        0.76050
C          2.25890       -0.54040        1.23310
C          0.75070       -0.56620        1.20560
H          0.93570        2.00390        0.04190
H         -0.53990        1.90370       -0.92950
H         -0.64620        1.88890        0.84070
H         -1.78020       -0.19000       -0.68940
H          0.19100       -0.62380       -2.10020
H          1.66400        0.09780       -1.46950
H          0.56940       -2.70270       -0.91730
H          2.24180       -2.25410       -1.26980
H          1.58610       -2.66820        1.37720
H          2.72610       -0.58260        2.21100
H          2.80220        0.06990        0.51850
H          0.20310       -0.54810        2.14090
