15
gdb 4930	6.80165	1.25064	1.06353	1.1249	63.87	-0.1745	0.0694	0.244	1058.0946	0.118574	-399.814989	-399.806916	-399.805971	-399.847159	29.474
C         -0.00890        1.37570       -0.03770
O         -0.02670       -0.03520        0.00230
C          0.61050       -0.58960        1.06600
C          1.26760        0.02660        2.10510
N          1.74340       -0.99460        2.92890
C          1.38880       -2.19830        2.41080
O          1.77080       -3.31170        3.08670
C          0.68020       -2.00610        1.24850
H          1.01950        1.76070       -0.08840
H         -0.55210        1.67470       -0.93600
H         -0.50090        1.80630        0.84600
H          1.44400        1.05970        2.34180
H          2.26790       -0.87700        3.77670
H          1.45160       -4.08010        2.60450
H          0.25990       -2.75860        0.60140
