15
gdb 13247	7.81218	0.90234	0.8434	4.856	65.78	-0.2423	-0.0181	0.2242	1304.7437	0.117236	-399.797464	-399.78942	-399.788476	-399.831686	27.17
O         -0.24090        0.07350        0.48010
C          0.23920        0.82350       -0.32800
C          1.00120        2.08940        0.03510
N          1.06860        2.97700       -1.11270
C          1.08090        4.21340       -0.92440
C          1.11630        5.43770       -1.81320
C          1.06990        6.20140       -0.47350
O          1.05630        4.93410        0.25590
H          0.17660        0.63920       -1.42360
H          0.55620        2.53520        0.93330
H          2.01780        1.76800        0.31250
H          2.03140        5.55230       -2.39620
H          0.25090        5.55550       -2.46700
H          1.95470        6.78750       -0.21560
H          0.16200        6.77490       -0.27410
