19
gdb 9643	4.05485	1.19424	1.06835	0.9887	79.58	-0.2353	0.0393	0.2746	1186.2486	0.163201	-327.878156	-327.868797	-327.867852	-327.912011	34.318
C         -0.25590        1.52240        0.18080
C          0.23580        0.10760       -0.14870
C          0.93650       -0.52710        1.03180
N          0.09870       -1.12950        2.07680
C          1.00850       -2.00660        1.29170
C          0.33300       -3.03440        0.40150
C          2.20240       -2.47710        1.95270
C          3.18560       -2.88850        2.51150
H          0.57680        2.17870        0.45730
H         -0.76480        1.97300       -0.67650
H         -0.95810        1.49840        1.01980
H         -0.61340       -0.51090       -0.45170
H          0.92940        0.13970       -0.99860
H          1.81120        0.02680        1.37240
H          0.49530       -0.96090        2.99770
H         -0.60300       -2.64380        0.00040
H          0.98730       -3.31850       -0.42840
H          0.10490       -3.93580        0.97800
H          4.05740       -3.24570        3.00120
