9
gdb 774	9.51486	3.93819	2.78534	2.7251	39.58	-0.2283	0.0138	0.2421	424.7483	0.064276	-317.447668	-317.44298	-317.442036	-317.475538	16.736
O          0.01090       -0.05220        0.00300
C         -0.01490        1.15810        0.00980
N         -1.12420        2.01770        0.02880
C         -0.67940        3.31490        0.03000
N          0.61400        3.38860        0.01350
N          1.01860        2.07380        0.00090
H         -2.07330        1.68830        0.03970
H         -1.33330        4.17240        0.04320
H          1.99680        1.84600       -0.01280
