12
gdb 4089	3.68708	1.91264	1.25936	3.4969	63.58	-0.2195	-0.0705	0.149	869.5655	0.084545	-414.656994	-414.650203	-414.649259	-414.687983	25.155
O         -0.08270        1.32210        0.00760
N          0.01810       -0.05760        0.00220
C         -1.14020       -0.61300        0.00920
C         -2.49190       -0.08330        0.02120
C         -3.32270       -1.14820        0.02400
N         -2.62200       -2.35020        0.01460
C         -1.24390       -2.12700        0.00490
O         -0.38620       -2.97420       -0.00440
H          0.84030        1.60160        0.00150
H         -2.76790        0.95670        0.02680
H         -4.40340       -1.16200        0.03220
H         -3.02420       -3.27150        0.01470
