17
gdb 7211	4.16316	1.12378	0.8999	3.8024	77.92	-0.2371	-0.0136	0.2235	1293.9204	0.139559	-363.867583	-363.857561	-363.856617	-363.904214	32.933
C         -0.08680        1.50160        0.07380
C          0.01650        0.05270        0.01710
C          0.09890       -1.14960       -0.03010
C          0.03140       -2.60210       -0.09170
O         -1.04890       -3.17070       -0.14500
N          1.23120       -3.26800       -0.08580
C          1.22860       -4.71770       -0.14550
C          2.52640       -2.62450       -0.02350
H          0.42680        1.96630       -0.77500
H         -1.13300        1.82410        0.05180
H          0.36690        1.89280        0.99090
H          1.76810       -5.06820       -1.03470
H          1.71900       -5.14120        0.74030
H          0.19540       -5.05830       -0.18810
H          2.40240       -1.54310        0.01760
H          3.07980       -2.95060        0.86710
H          3.12870       -2.87750       -0.90610
