15
gdb 2461	6.13454	2.27251	1.89446	2.0403	62.01	-0.2347	0.0075	0.2422	698.6621	0.125485	-308.512758	-308.506586	-308.505642	-308.542478	23.735
C          0.03940        1.48290        0.03860
C         -0.02890       -0.00920       -0.01670
C         -0.11080       -0.78110       -1.10830
C         -0.04910       -2.22510       -0.74210
O          1.18820       -2.59820       -0.08320
C          0.05430       -2.28460        0.72580
C          0.03300       -0.85420        1.24940
H          0.99000        1.81850        0.47240
H         -0.05330        1.92750       -0.95580
H         -0.75480        1.89390        0.67500
H         -0.16830       -0.42230       -2.12900
H         -0.49340       -3.00500       -1.35280
H         -0.33570       -3.10350        1.32450
H          0.92220       -0.62730        1.85060
H         -0.83920       -0.67760        1.89330
