16
gdb 11341	5.44501	1.23352	1.08544	5.4405	68.36	-0.2635	-0.0375	0.226	1089.5426	0.130961	-383.799137	-383.791532	-383.790588	-383.831695	27.448
C         -0.23580        1.52350       -0.05760
C          0.09560        0.02070        0.01550
C          0.81590       -0.48660       -1.19350
C          2.05750       -0.96680       -1.30540
C          2.31990       -1.34650       -2.70990
O          3.29960       -1.81020       -3.21980
O          1.17560       -1.07140       -3.43000
C          0.18580       -0.53130       -2.56400
H          0.67490        2.11950       -0.16810
H         -0.89290        1.75210       -0.90200
H         -0.74450        1.84440        0.85560
H          0.70210       -0.18010        0.90410
H         -0.83870       -0.54390        0.13780
H          2.80050       -1.09100       -0.53090
H         -0.70620       -1.17190       -2.58670
H         -0.10670        0.46160       -2.92840
