19
gdb 17814	4.16484	1.49816	1.35748	2.5418	71.9	-0.2384	0.0762	0.3145	985.5955	0.166479	-364.977017	-364.96943	-364.968485	-365.008987	29.455
C          0.82310       -0.16310       -1.36180
C          0.07480        0.06840       -0.05450
O         -0.06370        1.47380        0.12380
C         -1.32040       -0.54110       -0.08340
C         -1.71720       -1.96420        0.39010
C         -1.47760       -1.43690        1.82040
N         -2.20360       -0.24740        1.15920
C         -3.11880       -1.33750        0.56830
H          1.78840        0.34930       -1.33330
H          1.00130       -1.23040       -1.52610
H          0.25190        0.23390       -2.20680
H          0.67560       -0.35490        0.76450
H         -0.76460        1.59970        0.77670
H         -1.82230       -0.19650       -0.99560
H         -1.44960       -2.93420       -0.04240
H         -2.05610       -1.89010        2.63000
H         -0.46180       -1.22180        2.15110
H         -3.66090       -1.01580       -0.32500
H         -3.79000       -1.78240        1.30740
