18
gdb 14142	4.39452	1.54638	1.33858	1.8951	74.49	-0.2369	0.0139	0.2508	975.7916	0.153758	-347.807124	-347.7994	-347.798456	-347.839791	28.983
C         -0.09880        1.55240        0.00420
C         -0.08780        0.05000        0.12410
O          1.13210       -0.62340       -0.20260
C          0.66520       -0.67910        1.16210
C          1.52100       -0.02450        2.25620
C          1.51790       -1.02980        3.44140
C          0.71380       -2.20020        2.92820
C          0.25190       -2.00340        1.69430
H          0.80610        1.99210        0.43000
H         -0.15790        1.84960       -1.04830
H         -0.96960        1.97260        0.51970
H         -0.97750       -0.44140       -0.27900
H          2.52860        0.14270        1.86750
H          1.12390        0.94920        2.55490
H          2.52960       -1.33400        3.73630
H          1.05970       -0.59780        4.33980
H          0.54270       -3.08930        3.52510
H         -0.34460       -2.69430        1.11050
