19
gdb 7451	2.60026	1.64796	1.44717	4.7038	67.75	-0.2492	0.0192	0.2684	996.7219	0.164041	-402.246172	-402.236576	-402.235631	-402.280328	34.928
C          0.16630        1.58200        0.02730
C          0.04190        0.05400        0.01440
O         -1.29210       -0.36330        0.23050
C          0.63120       -0.58400       -1.27120
C          0.59660       -2.12190       -1.19230
C         -0.14950       -0.12590       -2.50290
N          0.58640        0.10600       -3.62140
O         -1.36810        0.00520       -2.50310
H          1.21230        1.90050       -0.05000
H         -0.39440        2.02850       -0.80040
H         -0.24500        1.97340        0.96130
H          0.61900       -0.34720        0.85850
H         -1.75270       -0.19490       -0.60850
H          1.67370       -0.25410       -1.36810
H          1.20950       -2.46820       -0.35440
H         -0.42770       -2.46110       -1.02660
H          0.97910       -2.58240       -2.10830
H          1.58460       -0.00360       -3.64050
H          0.10570        0.35710       -4.47030
