17
gdb 15175	8.27325	0.68096	0.66025	1.7988	77.	-0.2371	0.0236	0.2607	1705.9671	0.140989	-363.7856	-363.776548	-363.775603	-363.821133	30.533
C          0.31930        1.31330       -0.17330
O          0.42650       -0.09120       -0.14610
C          0.19860       -0.61510        1.14850
C          0.31640       -2.06570        1.13650
C          0.40840       -3.26740        1.14430
C          0.51970       -4.69730        1.16990
C          1.51870       -5.37610        0.28890
N          1.73210       -5.34150        1.73730
H          1.05590        1.79410        0.49040
H          0.50840        1.63160       -1.20080
H         -0.68470        1.65410        0.12650
H          0.92020       -0.18730        1.86720
H         -0.80530       -0.32840        1.50860
H         -0.39500       -5.23450        1.40690
H          1.28050       -6.35470       -0.11790
H          2.12660       -4.74400       -0.35120
H          2.40800       -4.61560        1.96450
