15
gdb 1669	4.42613	1.83126	1.41125	2.2935	54.01	-0.2599	-0.0346	0.2253	844.6821	0.122808	-382.805933	-382.797832	-382.796887	-382.838635	28.305
C          0.04550        1.41480        0.03090
C          0.00470       -0.09200       -0.03660
O          1.00570       -0.77240       -0.13020
C         -1.34980       -0.79110        0.04340
O         -1.18740       -2.17660       -0.14380
C         -2.03660       -0.55910        1.40730
O         -3.19220       -1.35450        1.50460
H          1.04800        1.76930       -0.21120
H         -0.68810        1.85860       -0.64940
H         -0.21410        1.74640        1.04330
H         -2.00760       -0.39270       -0.74420
H         -0.22540       -2.31880       -0.15030
H         -1.31480       -0.78930        2.20960
H         -2.34790        0.48510        1.51580
H         -2.91980       -2.23770        1.22210
