17
gdb 11734	5.13276	1.35735	1.23198	4.2073	68.8	-0.2453	-0.0079	0.2374	1014.3291	0.141561	-363.852759	-363.84501	-363.844066	-363.884985	28.88
C          0.07550        1.52690       -0.20780
C         -0.08590        0.02630        0.07240
C          0.69650       -0.41920        1.27410
C          2.06700       -0.94480        1.22670
N          0.96560       -1.91420        1.54790
C          0.63750       -1.65720        2.94020
O          0.57820       -2.42590        3.84700
C          0.28640       -0.17430        2.73150
H          1.12240        1.78370       -0.39840
H         -0.50960        1.82310       -1.08300
H         -0.26600        2.12900        0.64090
H         -1.14580       -0.21160        0.22640
H          0.24090       -0.55690       -0.79560
H          2.50890       -1.14800        0.25630
H          2.78520       -0.70260        2.00670
H          0.84710        0.56590        3.30790
H         -0.78470       -0.00140        2.86940
