19
gdb 17642	2.9809	1.67374	1.39535	1.8655	72.34	-0.2162	-0.0191	0.1971	995.8143	0.163165	-365.048424	-365.039275	-365.038331	-365.083175	32.666
C         -0.40380        1.59920       -1.04830
C         -0.00130        0.52870       -0.02210
N         -1.17650        0.15070        0.76000
C         -2.20770       -0.74110        0.23400
C         -1.31330       -1.17550        1.34640
C          0.76250       -0.58900       -0.75830
C          2.27680       -0.52520       -0.67610
O          0.19540       -1.46430       -1.37560
H          0.47030        2.01220       -1.56120
H         -1.07090        1.16760       -1.79980
H         -0.92760        2.41110       -0.53770
H          0.69750        0.98240        0.69300
H         -3.22790       -0.42980        0.44550
H         -2.04340       -1.21540       -0.72640
H         -0.58030       -1.94060        1.10230
H         -1.67020       -1.19480        2.37300
H          2.59470       -0.74990        0.34940
H          2.72180       -1.24840       -1.36050
H          2.63940        0.48350       -0.90260
