14
gdb 20356	6.30777	1.44965	1.29915	4.2985	65.42	-0.255	-0.0339	0.2211	916.847	0.107827	-378.691204	-378.684605	-378.683661	-378.722469	24.367
C         -0.11630        1.46820       -0.07310
C          1.27500        0.95040        0.11280
C          0.11620       -0.03060        0.03330
C         -0.31420       -0.75850        1.22620
C         -0.80780       -2.01890        1.41120
N         -1.04230       -2.16660        2.75470
N         -0.74120       -1.12880        3.38700
O         -0.25130       -0.16220        2.41500
H         -0.59550        1.94850        0.77160
H         -0.40720        1.85180       -1.04410
H          1.95870        0.97140       -0.72790
H          1.73860        1.07990        1.08360
H          0.02340       -0.60760       -0.87940
H         -1.00530       -2.80440        0.70280
