20
gdb 15361	5.72221	0.84345	0.79245	2.9466	76.95	-0.2437	-0.0181	0.2256	1467.2542	0.175268	-349.006094	-348.996825	-348.995881	-349.041058	32.787
C          0.37830        1.53620        0.17000
C         -0.15140        0.11700       -0.06950
C          0.43250       -0.51170       -1.31860
C          1.75950       -1.23060       -1.28970
C          0.48620       -2.00470       -1.56000
C         -0.04100       -3.02580       -0.56700
C          0.65410       -4.36190       -0.73180
O          0.09450       -5.41750       -0.88030
H          1.46700        1.53430        0.28650
H          0.13710        2.19460       -0.67160
H         -0.05830        1.97520        1.07240
H          0.07370       -0.50140        0.80710
H         -1.24600        0.14390       -0.15080
H          0.24540        0.07310       -2.21700
H          2.46550       -1.08190       -2.09910
H          2.22600       -1.36560       -0.31770
H          0.33380       -2.30180       -2.59470
H          0.15230       -2.68690        0.45950
H         -1.11920       -3.18380       -0.67060
H          1.76710       -4.29940       -0.71350
