12
gdb 21688	3.55362	1.86983	1.2268	2.4761	58.79	-0.2541	-0.0621	0.192	886.7711	0.084398	-414.661697	-414.654826	-414.653882	-414.692885	24.806
N          0.03850        1.36890        0.13940
C          0.04220       -0.00380        0.03070
N         -1.08250       -0.68550        0.01870
O         -0.69050       -2.04240       -0.01170
C          0.62840       -2.11470       -0.03400
C          1.19270       -0.86900       -0.00720
C          2.61320       -0.54260        0.00970
O          3.50530       -1.36090       -0.03910
H          0.77230        1.84660       -0.36170
H         -0.87030        1.78320       -0.01770
H          1.06590       -3.10110       -0.06230
H          2.84210        0.54440        0.07840
