20
gdb 9284	3.38817	0.99711	0.80798	2.9513	72.8	-0.255	-0.0266	0.2284	1425.9788	0.172982	-386.148049	-386.13788	-386.136936	-386.184325	34.704
C          0.16790        1.48250        0.06420
C          0.01650       -0.03980        0.03070
C         -1.43820       -0.50880       -0.02130
C         -1.55190       -2.02880       -0.15460
O         -2.06410       -0.03920        1.17360
C         -3.46590       -0.02090        1.16140
C         -3.93890        0.75190        2.38170
O         -5.09260        0.84960        2.70440
H          1.22130        1.77150        0.12410
H         -0.25220        1.94240       -0.83760
H         -0.35190        1.90250        0.92860
H          0.53880       -0.45240       -0.84050
H          0.48550       -0.48380        0.91760
H         -1.93650       -0.03270       -0.88420
H         -1.07320       -2.52160        0.69770
H         -2.59460       -2.35670       -0.19880
H         -1.06050       -2.36830       -1.07160
H         -3.86200        0.48190        0.26140
H         -3.91540       -1.02560        1.19040
H         -3.11200        1.23100        2.95130
