15
gdb 20830	5.9852	1.3044	1.15686	1.9403	63.51	-0.2351	-0.0047	0.2303	1037.252	0.119923	-395.999918	-395.992219	-395.991275	-396.032761	27.719
C          0.26490        0.83380        0.88140
C         -0.19130        0.39110       -0.51980
C         -1.58220       -0.14540       -0.52930
N         -1.97430       -1.35920       -0.78180
C         -3.34060       -1.25580       -0.62590
N         -4.16530       -2.32370       -0.86670
N         -3.77630       -0.06350       -0.28800
O         -2.58020        0.69010       -0.23190
H          1.28390        1.22770        0.83900
H         -0.38980        1.61460        1.27640
H          0.25270       -0.00760        1.58030
H         -0.14130        1.24180       -1.20900
H          0.46080       -0.39210       -0.91260
H         -3.72490       -3.22050       -0.73070
H         -5.08730       -2.24970       -0.46430
