6
gdb 23	0.	4.4259726	4.4259726	0.	38.52	-0.2599	-0.0214	0.2386	278.6264	0.037354	-153.459846	-153.455442	-153.454498	-153.482621	15.312
C          0.68100        0.00000        0.00000
C         -0.68100        0.00000        0.00000
C         -1.88770        0.00000        0.00000
C          1.88770        0.00000        0.00000
H         -2.94960        0.00000        0.00000
H          2.94960        0.00000        0.00000
