20
gdb 6085	4.10342	0.82515	0.77769	1.8152	80.99	-0.2478	0.0416	0.2894	1575.3181	0.174083	-348.986018	-348.975594	-348.974649	-349.023614	36.554
C         -0.39760        1.32390        0.13060
C          0.17590       -0.08970       -0.09240
C          1.07650       -0.13810       -1.34310
C          0.89900       -0.55710        1.09130
C          1.50680       -0.91310        2.06990
C          2.26450       -1.39370        3.23040
C          1.71410       -2.72900        3.75230
O          3.66200       -1.48020        2.95160
H          0.40930        2.04470        0.29380
H         -0.97210        1.64220       -0.74530
H         -1.05530        1.34860        1.00330
H         -0.66930       -0.77150       -0.26290
H          1.93320        0.53260       -1.22640
H          1.45740       -1.14820       -1.51590
H          0.51260        0.17480       -2.22760
H          2.19550       -0.64990        4.03390
H          2.30730       -3.05760        4.60970
H          0.66840       -2.62720        4.05720
H          1.76740       -3.49520        2.97200
H          3.75840       -1.98620        2.13720
