18
gdb 15386	3.74821	1.13936	0.94471	3.1871	73.76	-0.2559	0.013	0.2689	1249.4504	0.15337	-343.971384	-343.962725	-343.961781	-344.005081	30.858
C          0.16210        1.52290        0.09900
C         -0.01360        0.00700        0.22020
C         -1.37650       -0.46110       -0.28890
N         -1.47880       -1.91970       -0.19560
C         -2.00630       -2.47430        1.03480
C         -2.81200       -2.53240       -0.23090
C         -4.00300       -1.72370       -0.33790
N         -4.95990       -1.08400       -0.45540
H          1.14260        1.83550        0.46920
H          0.07980        1.85020       -0.94320
H         -0.59870        2.06030        0.67540
H          0.76900       -0.51430       -0.34210
H          0.10190       -0.29840        1.26800
H         -2.18210        0.04680        0.26670
H         -1.49710       -0.19110       -1.34430
H         -1.53600       -3.38210        1.40110
H         -2.35850       -1.78700        1.80260
H         -2.86790       -3.46430       -0.78670
