12
gdb 5420	3.73991	2.03045	1.31598	4.3402	58.13	-0.2242	-0.0327	0.1915	834.7848	0.085383	-414.737877	-414.731312	-414.730368	-414.76872	23.974
O         -0.07210       -0.04760       -0.00060
C         -0.02230        1.15640        0.00790
N          1.17040        1.86820        0.00000
C          2.46270        1.32030       -0.01860
C          3.32880        2.34610       -0.02030
N          2.59620        3.53500       -0.00310
C          1.23760        3.28600        0.01010
O          0.31500        4.06840        0.02640
H         -0.89050        1.83250        0.02290
H          2.60530        0.25500       -0.02830
H          4.40520        2.34480       -0.03230
H          2.96490        4.46990        0.00010
