16
gdb 19024	4.66465	1.66031	1.64855	0.8307	63.15	-0.242	0.0624	0.3043	831.4035	0.131111	-383.661433	-383.654947	-383.654003	-383.691756	25.962
O         -0.02500        1.30480        0.07620
C         -0.01240       -0.09200       -0.01340
C         -1.38890       -0.67630       -0.01210
C         -0.53290       -0.67460       -1.30220
C         -0.50030       -2.21280       -1.25400
O          0.60120       -2.82290       -0.52610
C         -0.21530       -2.96830        0.66760
C         -1.39030       -2.22060        0.00280
H          0.72780        1.63740       -0.42370
H          0.81320       -0.57780        0.50200
H         -2.23240       -0.04580        0.23920
H         -0.62570       -0.06010       -2.19000
H         -0.73720       -2.74070       -2.18070
H         -0.42070       -4.02550        0.87530
H          0.24640       -2.50970        1.54940
H         -2.37450       -2.68560        0.01580
