20
gdb 18382	3.17906	2.11089	1.42421	0.2176	79.38	-0.232	0.028	0.26	925.0641	0.180219	-311.869029	-311.862011	-311.861067	-311.89983	28.717
C         -0.08970        1.50220        0.01830
C          1.30490        0.93040        0.11790
C          2.05040        0.85240        1.43370
C          2.86260       -0.44680        1.56190
C          2.07480       -1.73460        1.60460
C          0.77650       -1.95420        1.38340
C         -0.28720       -0.94150        1.00220
C          0.13180        0.01260       -0.10740
H         -0.55300        1.86550        0.93110
H         -0.35750        2.06790       -0.86770
H          1.94860        1.09350       -0.74370
H          2.72650        1.71090        1.53120
H          1.34990        0.92460        2.27300
H          3.58610       -0.50500        0.73340
H          3.48170       -0.39860        2.46910
H          2.68040       -2.60270        1.86450
H          0.42400       -2.97730        1.49990
H         -1.19370       -1.47420        0.69360
H         -0.58470       -0.36890        1.89030
H          0.04210       -0.40540       -1.10620
