19
gdb 5805	3.50839	1.3516	1.24833	4.7178	68.08	-0.2473	0.0182	0.2655	1066.606	0.163285	-402.250478	-402.24094	-402.239996	-402.284466	35.41
C          0.09040        1.51730        0.05760
C          0.04450       -0.01260        0.06450
C          0.93120       -0.57000        1.19290
O         -1.31340       -0.36450        0.28200
C          0.50220       -0.54820       -1.31750
C          0.39050       -2.06290       -1.44320
N          1.31260       -2.65760       -2.24450
O         -0.47930       -2.71560       -0.87930
H          1.10960        1.88680       -0.09320
H         -0.55020        1.91500       -0.73480
H         -0.27940        1.89860        1.01360
H          0.58300       -0.18160        2.15380
H          0.87410       -1.66150        1.22980
H          1.98050       -0.28090        1.06360
H         -1.37170       -1.31630        0.09590
H         -0.15390       -0.11470       -2.08240
H          1.52370       -0.21970       -1.54040
H          2.02150       -2.13550       -2.72780
H          1.24180       -3.64970       -2.40400
