14
gdb 3504	6.6433	2.11415	2.07202	3.8934	59.44	-0.2364	0.0137	0.2501	663.259	0.114443	-324.522792	-324.517031	-324.516087	-324.552413	21.698
O          0.10280        0.04900        0.45070
C          0.07290        1.22120        0.14570
N          1.09390        1.90240       -0.46770
C          2.56220        1.67260       -0.21230
C          2.81240        2.96180       -1.04680
C          1.63050        3.26360       -0.08360
C          2.44800        2.57970        1.05330
H         -0.83620        1.85050        0.24520
H          3.00960        0.68670       -0.31300
H          3.74420        3.49380       -0.85240
H          2.56380        2.90370       -2.10640
H          0.98850        4.14320       -0.04130
H          1.87580        2.16850        1.88620
H          3.35770        3.08730        1.38430
