16
gdb 2395	5.48104	1.96749	1.76146	1.9956	60.93	-0.242	0.0611	0.3031	763.5419	0.136687	-325.726182	-325.719199	-325.718255	-325.757142	25.476
C         -0.02300        1.53630       -0.11370
C         -0.00420        0.03420        0.02680
N          1.31560       -0.62760       -0.10030
C          0.61910       -0.65280        1.17650
C          1.17320       -0.12310        2.49490
O          0.61230       -1.25740        3.19850
C          0.12850       -1.85580        1.97830
H          0.86340        1.97660        0.35090
H         -0.02890        1.82910       -1.16880
H         -0.91320        1.96290        0.36130
H         -0.85420       -0.48080       -0.42180
H          1.22930       -1.52500       -0.57250
H          2.26840       -0.09620        2.55340
H          0.76280        0.82760        2.85720
H         -0.95570       -2.02610        2.00000
H          0.63740       -2.80460        1.75400
