17
gdb 4488	3.59106	1.67286	1.15765	0.6448	72.9	-0.1696	0.06	0.2296	1034.0912	0.141152	-363.908814	-363.899815	-363.898871	-363.942672	31.927
C         -0.01730        1.51400        0.07710
C          0.00940        0.02760       -0.04080
C          0.02730       -0.79910       -1.13440
C          0.05010       -2.16540       -0.69050
C          0.07430       -3.40070       -1.53830
C          0.04480       -2.10200        0.68220
O          0.05850       -3.04850        1.66020
N          0.02030       -0.79330        1.07720
H          0.85770        1.90880        0.61060
H         -0.02230        1.96100       -0.91980
H         -0.90880        1.87750        0.60550
H          0.02450       -0.46980       -2.16360
H          0.95910       -3.44140       -2.18540
H          0.08850       -4.31480       -0.93120
H         -0.80450       -3.47230       -2.19070
H          0.07570       -3.91310        1.23850
H          0.01310       -0.49520        2.03710
