14
gdb 1425	6.84248	1.35075	1.22109	1.2395	56.52	-0.2525	-0.0456	0.2069	929.0995	0.111234	-361.739999	-361.732075	-361.731131	-361.772962	26.121
C         -0.12690        1.36530        0.16520
N         -0.03250       -0.06320       -0.09570
C         -0.03870       -0.96490        1.03080
C         -1.40250       -1.04870        1.71580
O         -1.55250       -1.25470        2.88890
C          0.12920       -0.51520       -1.37730
O          0.16350        0.17910       -2.36800
H          0.71420        1.70270        0.78260
H         -0.10380        1.87930       -0.79550
H         -1.05870        1.61120        0.68710
H          0.20080       -1.97600        0.67380
H          0.71480       -0.69340        1.78020
H         -2.26270       -0.92140        1.01810
H          0.22610       -1.61880       -1.40950
