16
gdb 19418	4.18061	2.01352	1.6416	1.9343	70.06	-0.2353	0.0013	0.2366	809.015	0.131495	-346.574239	-346.567894	-346.56695	-346.604452	25.643
C          0.00180        1.52420       -0.02250
C          1.29870        0.77020       -0.00610
C         -0.01440        0.00980        0.00350
C         -0.46950       -0.77300        1.18710
C         -1.02370       -1.93770        0.82920
C         -1.06170       -2.04440       -0.66140
O         -1.85660       -1.01000       -1.29260
C         -0.44430       -0.81180       -1.18540
H         -0.30460        2.04160        0.88010
H         -0.30690        2.01010       -0.94150
H          1.88420        0.73310       -0.91960
H          1.88910        0.76920        0.90360
H         -0.37390       -0.39830        2.20060
H         -1.42660       -2.68730        1.49790
H         -1.05560       -2.99780       -1.18070
H          0.09670       -0.75230       -2.12700
