16
gdb 12680	2.68247	2.28275	1.52506	0.9093	60.18	-0.2591	-0.0392	0.2199	851.8234	0.129545	-420.894152	-420.886412	-420.885467	-420.926075	28.744
C          0.54560        1.36110       -0.23950
C         -0.13260        0.06050        0.17420
O         -0.09030       -0.94770       -0.85980
C          1.14010       -1.64910       -0.78740
C          1.64630       -1.42360        0.62850
O          2.72110       -1.69040        1.10270
C          0.55670       -0.64480        1.35860
O          1.07570        0.17870        2.36130
H          1.61250        1.21660       -0.44120
H          0.07390        1.75580       -1.14300
H          0.45940        2.09870        0.56210
H         -1.19410        0.23460        0.36500
H          0.97100       -2.71100       -0.99860
H          1.88560       -1.27640       -1.50560
H         -0.15130       -1.38660        1.76930
H          1.95680       -0.17060        2.56450
