15
gdb 20280	5.50381	2.13867	2.04981	1.7286	62.79	-0.229	0.0748	0.3038	688.8369	0.121133	-362.555428	-362.550258	-362.549314	-362.584345	22.123
C          0.01210        1.49420       -0.02490
C          1.29070        0.73350        0.00540
C          1.85280        0.33670        1.35220
C          1.38750       -1.14550        1.61710
O          1.22730       -0.88550        3.04430
C          0.69470        0.31310        2.38900
C         -0.02700       -0.56640        1.30860
N         -0.01810        0.01990       -0.03340
H         -0.31280        2.02130        0.86810
H         -0.30900        1.94900       -0.95740
H          1.91320        0.66590       -0.88190
H          2.84680        0.64970        1.66530
H          1.84160       -2.08710        1.30890
H          0.31680        1.10760        3.03160
H         -0.91940       -1.12890        1.57620
