14
gdb 7947	3.75309	1.71416	1.23426	1.0147	57.81	-0.2545	-0.0541	0.2004	911.2687	0.105671	-419.720766	-419.713464	-419.712519	-419.75272	26.973
O          0.40990        1.12250        0.63580
C         -0.01490       -0.07260        0.05070
C         -1.53080       -0.18130       -0.18110
C         -1.68920       -1.10530       -1.39540
O         -2.70130       -1.65620       -1.73230
C         -0.33570       -1.20960       -2.12340
C          0.56100       -0.25880       -1.35710
O          1.51440        0.36280       -1.75580
H          1.17540        1.41270        0.11620
H          0.31550       -0.94390        0.64740
H         -2.10710       -0.53950        0.67320
H         -1.91930        0.80880       -0.45530
H          0.03210       -2.24010       -2.03520
H         -0.40100       -0.97970       -3.18940
