17
gdb 3245	8.23466	1.42416	1.3991	1.0107	65.17	-0.24	0.096	0.336	923.0521	0.147725	-309.674575	-309.667457	-309.666512	-309.70608	26.543
C         -0.17070        0.94880       -0.50830
C          1.13450        1.04380        0.26050
C          0.36340       -0.23400        0.25930
O         -0.24290       -0.58670        1.46810
C         -1.34630       -1.42800        1.30090
C         -1.12300       -2.91630        1.20810
C         -1.69570       -2.29120        2.46710
H         -1.02640        1.46230       -0.08430
H         -0.14130        0.92620       -1.59220
H          2.06730        1.08720       -0.28990
H          1.12160        1.61170        1.18370
H          0.75050       -1.07920       -0.30900
H         -2.15230       -0.99450        0.70960
H         -1.77410       -3.50470        0.57100
H         -0.09640       -3.26170        1.25710
H         -1.03880       -2.22600        3.32680
H         -2.74240       -2.44650        2.70230
