15
gdb 4059	5.56771	1.31061	1.18165	2.0126	66.33	-0.2462	0.0007	0.2469	1009.3815	0.116784	-399.718217	-399.710589	-399.709645	-399.749977	28.58
C          0.07200        1.52180        0.01370
C         -0.07660        0.04090        0.12150
C         -1.37320       -0.80690        0.01120
C         -0.69690       -1.78270        0.97820
N         -1.03100       -2.80180        1.64920
O         -2.33610       -3.21210        1.33030
C          0.54840       -0.95650        1.03050
O          0.98070       -0.79990       -0.34280
H          1.08420        1.82420        0.29440
H         -0.11040        1.85420       -1.01450
H         -0.64420        2.03310        0.66450
H         -2.26030       -0.34610        0.45600
H         -1.60860       -1.17540       -0.98940
H         -2.45570       -3.97510        1.90620
H          1.29770       -0.86590        1.80650
