15
gdb 18206	4.34367	1.73012	1.4166	5.7024	65.17	-0.2363	0.0317	0.268	865.4388	0.121634	-358.820453	-358.813753	-358.812809	-358.851401	25.456
N         -0.00470       -1.12120       -0.29840
C          0.01020        0.02790       -0.18170
C          0.01590        1.49750       -0.09470
N         -0.61440        1.95950        1.14460
C         -0.03780        3.25230        1.53220
C          1.36860        3.19580        0.96960
N          2.06630        1.93090        1.27050
C          1.41360        2.10920       -0.03470
H         -0.46440        1.87500       -1.01510
H         -1.62400        1.95680        1.09850
H         -0.55280        4.12350        1.09320
H         -0.05880        3.35730        2.62290
H          1.93560        4.11240        0.85200
H          3.06870        2.06100        1.15800
H          2.00000        2.15490       -0.94460
