15
gdb 18951	5.73846	1.68748	1.5549	1.1273	65.71	-0.2396	-0.0333	0.2063	819.7369	0.118978	-362.561535	-362.555208	-362.554263	-362.592259	23.937
O         -0.69410        0.89170        0.56670
C          0.14520        0.97810       -0.29660
C          1.31710        1.91330       -0.24900
C          1.06650        3.39040       -0.64940
C          0.41460        3.77690        0.71160
C          1.42200        4.91320        0.84100
N          2.29420        3.84910        0.17670
C          1.55710        2.75820        1.00640
H          0.07860        0.35800       -1.21980
H          2.20980        1.48290       -0.71600
H          0.87270        3.80680       -1.63930
H         -0.63510        3.70780        1.00300
H          1.28190        5.80720        0.22450
H          1.76370        5.18810        1.84410
H          1.93920        2.44800        1.97940
