17
gdb 13698	4.4078	0.92488	0.8119	2.8857	75.07	-0.2435	0.0231	0.2666	1401.4677	0.140911	-363.799885	-363.790738	-363.789793	-363.835206	31.733
C         -0.36800        1.45350        0.19950
C         -0.01560       -0.00990        0.12460
N          1.35600       -0.34540       -0.26350
C          0.89980       -0.67350        1.11300
C          1.50510        0.03650        2.20470
C          2.00160        0.62000        3.13590
C          2.55880        1.33050        4.28510
O          1.68740        2.31670        4.82370
H          0.45500        2.02490        0.63350
H         -0.57300        1.84850       -0.80090
H         -1.26080        1.60570        0.81520
H         -0.80790       -0.65490       -0.25490
H          1.37610       -1.19730       -0.81850
H          0.68590       -1.72040        1.32020
H          2.85800        0.59900        5.05330
H          3.46810        1.86670        3.99100
H          0.83370        1.89550        4.96830
