11
gdb 429	5.28799	4.0728	2.50583	2.5208	43.41	-0.2475	0.0204	0.2679	495.5449	0.08494	-322.436757	-322.430835	-322.429891	-322.46623	20.351
O          0.03220        1.42850        0.16310
C          0.02230        0.02810        0.07230
C         -1.39790       -0.59470       -0.03510
N         -0.97100       -1.16920       -1.31980
C          0.25030       -0.54780       -1.35450
O          1.11650       -0.45020       -2.18300
H          0.82440        1.73820       -0.29130
H          0.65110       -0.44610        0.83800
H         -1.66270       -1.33490        0.72460
H         -2.17840        0.16650       -0.11930
H         -1.48690       -1.65630       -2.03840
