12
gdb 4594	6.00272	1.59348	1.25921	2.203	59.3	-0.2306	-0.0444	0.1861	868.1396	0.085948	-414.718842	-414.712593	-414.711648	-414.749102	23.871
O          0.04030        1.35870        0.16500
C          0.05700        0.00280        0.04470
C          0.05490       -0.68650       -1.16570
N          0.07170       -2.01590       -1.23910
C          0.09090       -2.65770       -0.07660
O          0.10770       -4.00020       -0.14640
N          0.09480       -2.11120        1.14260
C          0.07780       -0.78240        1.19650
H          0.02670        1.75790       -0.71170
H          0.03910       -0.14550       -2.11270
H          0.12020       -4.31630        0.76670
H          0.08070       -0.31430        2.17750
