14
gdb 14260	4.18807	1.75297	1.57576	5.1537	57.25	-0.2717	0.0091	0.2808	817.1413	0.107467	-419.675696	-419.668939	-419.667995	-419.7069	25.115
O         -0.33540        1.42720        0.37710
C         -0.06070        0.07960        0.12790
C          0.37220       -0.85820        1.30500
C         -0.81110       -1.81870        0.94280
C         -1.31440       -0.78600       -0.10050
O         -2.42430       -0.44160        0.78010
C         -2.07440       -1.41470        1.69370
O         -2.64690       -1.71120        2.69080
H          0.49780        1.89670        0.48520
H          0.62000       -0.05420       -0.72660
H          1.36210       -1.30220        1.18930
H          0.29310       -0.40820        2.29630
H         -0.61390       -2.87230        0.76490
H         -1.66670       -0.99680       -1.10870
