17
gdb 2363	4.92833	1.87036	1.4747	2.5319	60.01	-0.2417	0.0647	0.3064	840.2379	0.147529	-346.829131	-346.82134	-346.820396	-346.861508	27.652
C         -0.14980        1.51310       -0.00490
C          0.03210       -0.00500       -0.01590
O          0.77640       -0.43330       -1.15430
C          0.80300       -0.50980        1.19360
C          0.04680       -0.53460        2.53980
O          0.08260       -1.97330        2.59010
C          0.84890       -2.04220        1.36670
H          0.82430        2.01250       -0.01100
H         -0.70970        1.84520       -0.88670
H         -0.70630        1.84070        0.87940
H         -0.96180       -0.48590       -0.01460
H          0.31250       -0.13760       -1.94400
H          1.78120       -0.02320        1.22590
H          0.57420       -0.07900        3.38750
H         -0.98180       -0.14850        2.51880
H          0.33710       -2.61820        0.58670
H          1.84420       -2.47180        1.53150
