19
gdb 8892	4.0645	1.04774	1.01854	2.4384	69.36	-0.2415	0.035	0.2765	1250.4736	0.163652	-402.230759	-402.22052	-402.219575	-402.266979	34.817
C         -0.24230        1.44650        0.13410
N         -0.17080        0.00260        0.24040
C          0.89720       -0.64400        0.79100
O          1.86480       -0.05780        1.25000
C          0.81190       -2.17020        0.78670
C          1.83710       -2.74880       -0.20210
C          1.06160       -2.67660        2.21130
O          0.90790       -4.08870        2.20630
H         -0.31300        1.76790       -0.91120
H         -1.10340        1.84560        0.68180
H          0.67400        1.84730        0.56930
H         -0.93230       -0.54890       -0.11740
H         -0.19450       -2.49370        0.49180
H          1.59760       -2.46740       -1.23220
H          2.83510       -2.36680        0.03170
H          1.84860       -3.83800       -0.12950
H          2.07020       -2.37170        2.52020
H          0.34550       -2.20450        2.90260
H          1.20370       -4.42420        3.05710
