21
gdb 6275	2.82002	1.2082	1.05697	3.8035	78.8	-0.3118	0.0362	0.348	1255.4172	0.187158	-329.16158	-329.15165	-329.150706	-329.196504	35.676
C         -0.00300        1.62520       -0.06190
C          0.04570        0.11010        0.17990
C          0.65070       -0.19980        1.55670
C         -1.35940       -0.49230        0.00410
C         -1.45180       -2.03430        0.07560
C         -2.90220       -2.52810       -0.09310
C         -0.58310       -2.65850       -0.92950
N          0.09510       -3.14560       -1.72930
H          0.99580        2.06660        0.01230
H         -0.40010        1.85940       -1.05510
H         -0.64080        2.12230        0.67900
H          0.69690       -0.33250       -0.58560
H          0.78880       -1.27320        1.71860
H          1.63320        0.27100        1.66130
H          0.01250        0.18410        2.36210
H         -2.02730       -0.09090        0.77790
H         -1.77120       -0.17130       -0.96040
H         -1.08850       -2.36670        1.05550
H         -3.53100       -2.09820        0.69160
H         -3.30550       -2.22420       -1.06320
H         -2.95980       -3.61720       -0.02550
