14
gdb 2055	5.00017	2.63587	1.80444	3.0176	59.72	-0.2173	-0.0032	0.2141	677.4868	0.116017	-324.630221	-324.624197	-324.623253	-324.660011	22.914
O          0.02490       -0.07430        0.02150
C         -0.02350        1.13800        0.03580
C         -1.31720        1.94340        0.07230
C         -1.19740        3.28400        0.81800
C          0.06060        4.00730        0.41240
C          1.12910        3.31000        0.02430
N          1.11650        1.91170       -0.04830
H         -1.58320        2.13480       -0.97650
H         -2.09440        1.30110        0.48990
H         -2.08400        3.89420        0.61780
H         -1.19190        3.10860        1.90450
H          0.11140        5.08760        0.46250
H          2.07140        3.76850       -0.25200
H          1.97870        1.40190       -0.16630
