14
gdb 1446	7.94852	1.43693	1.23542	5.5391	56.25	-0.2499	-0.0281	0.2218	931.5737	0.111916	-361.769162	-361.761227	-361.760283	-361.8022	26.378
C         -0.10350        1.53670        0.17790
C          0.02840        0.03150       -0.03740
C          0.76570       -0.30900       -1.33040
O          1.19620        0.51240       -2.09620
N          0.88980       -1.69690       -1.53390
C          1.49770       -2.36030       -2.59640
O          2.03350       -1.85850       -3.54410
H          0.88000        2.01000        0.22390
H         -0.64990        2.00050       -0.64660
H         -0.63520        1.74440        1.11020
H          0.56390       -0.43920        0.79830
H         -0.95910       -0.44890       -0.06750
H          0.48980       -2.29410       -0.82440
H          1.42050       -3.45790       -2.44930
