14
gdb 3610	4.32281	4.19956	3.03423	0.6389	55.83	-0.2136	0.0605	0.2741	517.2626	0.115811	-324.49452	-324.489727	-324.488782	-324.52274	19.604
C          0.01080        1.52240        0.00850
C          1.54780        1.46400       -0.02390
O          2.09130        1.16850        1.28570
C          1.76750       -0.23680        1.15140
C          0.27100       -0.49240        1.40060
N         -0.09050        0.01620        0.02600
C          1.39940       -0.04260       -0.33770
H         -0.45270        2.03680        0.85520
H         -0.41430        1.89990       -0.92800
H          2.13630        2.21310       -0.55830
H          2.53620       -0.88300        1.58100
H          0.03260       -1.55980        1.46260
H         -0.19440        0.03650        2.23740
H          1.73600       -0.60100       -1.20870
