14
gdb 695	8.06963	4.05535	4.05535	0.	57.31	-0.2893	0.1064	0.3958	432.3178	0.121716	-233.217482	-233.213109	-233.212165	-233.244779	17.897
C         -0.08660        1.62440        0.01060
C          1.42120        1.30520       -0.00470
C          1.24600        0.05950        0.93330
C          2.02640       -0.86500       -0.02180
C          1.22890        0.06950       -0.95260
C         -0.01660        0.08460        0.00180
H         -0.48220        2.09580        0.91650
H         -0.49910        2.10490       -0.88280
H          2.27340        1.98730       -0.00860
H          1.23530        0.07750        2.02470
H          3.11630       -0.75870       -0.03150
H          1.74450       -1.92320       -0.02450
H          1.19880        0.09950       -2.04340
H         -0.82800       -0.64550        0.00500
