21
gdb 6769	5.64837	0.72257	0.70259	3.4518	77.23	-0.2396	0.039	0.2786	1704.46	0.187087	-366.31168	-366.301235	-366.300291	-366.349311	35.527
C         -0.09600        1.42790        0.41850
C         -0.04950       -0.01250       -0.09810
C         -1.41990       -0.69750       -0.08980
C         -1.36260       -2.13810       -0.61180
N         -2.65780       -2.79690       -0.62200
C         -3.00030       -3.76860        0.27610
C         -4.42280       -4.29460        0.14780
O         -2.23120       -4.19260        1.12030
H          0.89590        1.89000        0.40170
H         -0.76220        2.04710       -0.19270
H         -0.46390        1.46610        1.44970
H          0.35630       -0.02330       -1.11860
H          0.64980       -0.59890        0.51190
H         -1.82700       -0.70850        0.92880
H         -2.12470       -0.11430       -0.69970
H         -0.94110       -2.15310       -1.62550
H         -0.71950       -2.74860        0.02660
H         -3.35830       -2.46440       -1.26350
H         -4.97250       -3.88450       -0.70370
H         -4.38630       -5.38310        0.05890
H         -4.96830       -4.06120        1.06650
