14
gdb 18543	4.10644	2.07181	1.63884	4.244	61.38	-0.2695	-0.0117	0.2578	773.7062	0.109329	-382.578279	-382.572287	-382.571343	-382.608521	23.057
O         -0.26820        0.22310        0.46720
C         -0.08600        1.32260        0.05280
O         -0.98830        2.14150       -0.57570
C          0.01140        3.23660       -0.67360
C         -0.21800        4.33120        0.32230
C          0.56780        4.18870        1.39140
C          1.49500        2.99700        1.30380
C          1.07330        2.32480       -0.01970
H          0.11030        3.53600       -1.71780
H         -0.95350        5.11260        0.17600
H          0.56400        4.84550        2.25480
H          2.54600        3.30820        1.27930
H          1.39120        2.32460        2.16300
H          1.90090        1.98060       -0.63940
