16
gdb 802	7.59857	1.49645	1.32512	1.0383	65.04	-0.2394	0.0102	0.2496	910.3952	0.135534	-325.72997	-325.722501	-325.721557	-325.761646	27.432
C         -0.65110        1.32380       -0.17510
C          0.13510        0.04360        0.05990
C          1.39890       -0.20280       -0.83660
C          2.17140       -0.48060        0.43480
C          1.04200       -0.02600        1.33520
N          3.31340       -1.00230        0.59680
O          3.61940       -1.12210        1.96830
H          0.00630        2.20030       -0.13940
H         -1.14190        1.31500       -1.15450
H         -1.42720        1.45820        0.58620
H         -0.53330       -0.82140        0.02070
H          1.34790       -1.01480       -1.56640
H          1.73520        0.70440       -1.35190
H          1.22810        0.95310        1.79160
H          0.75370       -0.72150        2.12760
H          4.48610       -1.54110        1.94430
