17
gdb 15370	3.59319	1.32335	1.0652	3.0808	67.76	-0.2514	0.0199	0.2712	1122.2078	0.140301	-400.956618	-400.947935	-400.946991	-400.990626	30.212
C          0.22170        0.92680       -0.36580
O         -0.37100       -0.15590        0.33710
C          0.44500       -0.67090        1.32780
C          0.25450       -2.12780        1.63650
C          1.52420       -1.65920        0.95670
O          1.70120       -1.89370       -0.41480
C          1.95590       -3.17090       -0.78070
N          2.24620       -3.43080       -1.97980
H          1.13200        0.61150       -0.88820
H         -0.51580        1.26830       -1.09510
H          0.46330        1.75890        0.31240
H          0.66970        0.01490        2.14700
H          0.30240       -2.47230        2.66310
H         -0.46720       -2.63380        1.00480
H          2.45160       -1.65420        1.52520
H          1.87190       -3.88310        0.05010
H          2.39440       -4.43180       -2.09060
