15
gdb 2076	4.56213	2.52613	1.798	1.6996	57.21	-0.2422	-0.0179	0.2243	697.6287	0.126637	-345.680086	-345.673864	-345.67292	-345.710251	23.335
O          0.00260       -0.06710       -0.02040
C         -0.01390        1.14100       -0.00590
C         -1.29730        1.95860        0.00710
C         -1.22680        3.08120       -1.04720
O         -0.06340        3.86950       -0.88900
C          1.11680        3.11350       -1.07860
C          1.24640        1.99370       -0.02700
H         -2.15240        1.29910       -0.16080
H         -1.40040        2.42100        0.99720
H         -1.25580        2.64220       -2.05840
H         -2.07930        3.75840       -0.94980
H          1.13080        2.67520       -2.09040
H          1.95250        3.81410       -1.00390
H          1.36320        2.45910        0.96010
H          2.11460        1.35800       -0.21800
