13
gdb 5051	3.56836	2.2609	1.51346	4.8766	69.58	-0.2497	-0.083	0.1667	793.442	0.097571	-361.498603	-361.49242	-361.491476	-361.528972	23.376
O          0.00360        0.27300       -0.94590
C         -0.02200        1.24150       -0.21930
C         -1.30230        1.81430        0.25560
C         -1.60840        3.12860        0.19160
C         -0.71980        4.20200       -0.16880
C          0.63760        4.17270       -0.17220
C          1.44470        3.05180        0.25310
N          1.15470        1.80060        0.28400
H         -2.06380        1.08950        0.52840
H         -2.63510        3.41940        0.40030
H         -1.19660        5.15410       -0.38830
H          1.17370        5.09490       -0.37770
H          2.43800        3.31520        0.62810
