16
gdb 19589	4.26481	2.01358	1.85955	0.2106	62.41	-0.2405	0.0711	0.3116	769.9516	0.131389	-383.673383	-383.667238	-383.666294	-383.703271	25.11
C         -0.08300        1.54140        0.00340
C         -0.05590        0.02120       -0.00170
C          1.15300       -0.61380       -0.74150
O          1.98250       -0.30610        0.43650
C          0.74140       -0.62750        1.16250
C          0.64710       -2.15100        0.88240
O         -0.34590       -2.53450       -0.08280
C          0.95590       -2.14070       -0.54640
H          0.90560        1.95250        0.22000
H         -0.41310        1.92430       -0.96840
H         -0.78600        1.91180        0.75730
H         -1.03390       -0.40810       -0.21620
H          1.56230       -0.24410       -1.68140
H          0.72500       -0.27200        2.19250
H          0.95500       -2.90590        1.59650
H          1.53360       -2.88660       -1.08000
