16
gdb 7069	2.12092	1.87	1.05022	4.1018	67.55	-0.2715	0.0114	0.2828	1095.6345	0.127137	-383.734522	-383.725502	-383.724558	-383.768657	31.527
C          0.07560        1.68080        0.10150
C          0.00970        0.16270        0.00480
C          0.61550       -0.53200        1.24080
C          0.64890       -1.98250        1.11270
C          0.66430       -3.17580        0.97050
O         -1.37370       -0.20500       -0.10470
C         -1.72310       -1.14870       -1.00330
O         -2.84670       -1.53170       -1.12710
H          1.11460        2.01590        0.17070
H         -0.37900        2.13740       -0.78100
H         -0.46430        2.03270        0.98550
H          0.54220       -0.18200       -0.89110
H          1.63050       -0.14570        1.39490
H          0.02790       -0.24280        2.12050
H          0.67660       -4.23230        0.86290
H         -0.86760       -1.50460       -1.60740
