17
gdb 16828	3.64522	1.9437	1.43181	3.2173	68.73	-0.2167	-0.0142	0.2026	884.5373	0.142751	-363.862743	-363.855546	-363.854602	-363.893995	27.682
C          0.07360        1.51040       -0.00340
N          0.05840        0.06010        0.03190
C          0.54530       -0.59660       -1.17790
C          1.09470       -1.95260       -0.70770
O          1.22970       -2.93220       -1.39510
C          1.35680       -1.83160        0.75770
C          2.21860       -0.63440        1.17570
C          0.72070       -0.53090        1.17640
H          1.08560        1.93710       -0.13270
H         -0.55150        1.86570       -0.82860
H         -0.34390        1.90490        0.92840
H         -0.24670       -0.73960       -1.91960
H          1.36210       -0.04330       -1.67790
H          1.36260       -2.72890        1.36210
H          2.72870       -0.74010        2.12670
H          2.79100       -0.11650        0.41370
H          0.18980       -0.43750        2.11850
