17
gdb 17291	3.07965	2.5699	1.92153	0.6116	66.88	-0.2307	0.0513	0.282	766.3195	0.142712	-363.783327	-363.776673	-363.775729	-363.813634	26.758
C          0.03520        1.52680       -0.05490
C         -0.01820        0.02630        0.04330
C         -1.32810       -0.68300        0.43560
O         -0.62570       -1.52560        1.38910
C          0.62240       -0.83700        1.13820
C          1.52070       -1.45800        0.05910
C          0.72160       -2.08420       -1.00420
N          0.86050       -0.61500       -1.03580
H          1.07130        1.87000       -0.12640
H         -0.48720        1.86690       -0.95620
H         -0.43260        1.99730        0.81550
H         -2.04840       -0.02790        0.94220
H         -1.84920       -1.25920       -0.33750
H          1.10000       -0.46150        2.04560
H          2.60060       -1.54700        0.12600
H          1.26070       -2.55560       -1.82030
H         -0.22220       -2.55570       -0.75390
