15
gdb 12724	3.01965	2.23832	1.71208	3.1382	61.41	-0.2416	0.0149	0.2564	794.6251	0.119273	-399.802004	-399.794847	-399.793903	-399.833243	27.101
O          0.14240        1.44210       -0.14180
C         -0.01000        0.07230       -0.04090
C          0.40960       -0.72120       -1.30630
C         -0.91120       -1.54730       -1.26110
C         -1.35750       -0.77470        0.00740
N         -0.85880       -1.33270        1.26610
C          0.34360       -0.65190        1.28200
O          1.27180       -0.64540        2.04630
H          0.15100        1.82290        0.74330
H          0.45200       -0.04530       -2.16300
H          1.35520       -1.26290       -1.23880
H         -1.55660       -1.37150       -2.12440
H         -0.80230       -2.62500       -1.12050
H         -2.35650       -0.34150        0.05700
H         -1.08530       -2.20990        1.71500
