16
gdb 14955	4.59302	1.46575	1.19726	3.8651	61.38	-0.2586	-0.0343	0.2243	983.615	0.130636	-420.880208	-420.872836	-420.871892	-420.91251	26.722
O         -0.60760        0.70770        0.67900
C          0.15840        0.90860       -0.22200
C          1.40710        1.78190       -0.09640
O          2.50230        0.95360       -0.38540
C          3.72910        1.68150       -0.36140
C          3.66580        2.85720       -1.33890
C          2.40500        3.67300       -1.04490
O          1.26000        2.82210       -1.02660
H          0.02950        0.47560       -1.23600
H          1.48590        2.18620        0.92910
H          3.92250        2.04460        0.66140
H          4.51420        0.96900       -0.62460
H          4.55970        3.48360       -1.24530
H          3.62030        2.47510       -2.36390
H          2.49910        4.18550       -0.07330
H          2.21470        4.42760       -1.81150
