19
gdb 20072	4.22103	1.56631	1.42272	1.8113	70.87	-0.2365	0.0764	0.3129	954.2598	0.168029	-365.040261	-365.032807	-365.031863	-365.072642	28.03
C          0.29540        1.47950        0.25190
N          1.29910        0.41500        0.04450
C         -0.13070        0.07280        0.07130
C         -0.58830       -0.78830        1.23510
C         -0.04360       -2.23700        1.16140
C          0.40640       -2.52060        2.60390
C          0.81320       -1.12230        3.07000
O         -0.14720       -0.24830        2.48280
H          0.29380        1.89790        1.25210
H          0.10840        2.18440       -0.55410
H          1.63590        0.43880       -0.91410
H         -0.60740       -0.18420       -0.87470
H         -1.68760       -0.78120        1.25210
H         -0.79190       -2.94370        0.79520
H          0.81680       -2.26990        0.48620
H         -0.42970       -2.88950        3.20730
H          1.22010       -3.24780        2.66570
H          0.76870       -0.98540        4.15460
H          1.82420       -0.86950        2.72100
