26
gdb 5989	3.67654	0.97154	0.94726	0.0047	88.78	-0.2934	0.0757	0.3692	1450.1416	0.244181	-315.490873	-315.479782	-315.478838	-315.526768	40.882
C         -0.14450        1.66270        0.01250
C          0.02810        0.13980        0.00250
C         -1.32010       -0.59330        0.01150
C         -1.30090       -2.14570        0.00290
C         -0.59830       -2.66460       -1.26570
C         -0.57410       -2.67820        1.25220
C         -2.78690       -2.59800        0.01480
C         -3.06410       -4.10570        0.00940
H          0.82290        2.17490        0.00590
H         -0.70790        2.00320       -0.86360
H         -0.69080        1.99360        0.90290
H          0.60900       -0.14780       -0.88170
H          0.62590       -0.15740        0.87210
H         -1.88600       -0.26420        0.89480
H         -1.90280       -0.25480       -0.85710
H          0.44640       -2.34240       -1.30610
H         -0.59710       -3.75810       -1.30480
H         -1.09600       -2.29840       -2.17130
H         -1.05430       -2.32190        2.17100
H         -0.57220       -3.77210        1.27940
H          0.47120       -2.35630        1.27590
H         -3.26780       -2.15660        0.89780
H         -3.28470       -2.14720       -0.85410
H         -4.14340       -4.28940        0.01870
H         -2.66030       -4.59680       -0.88110
H         -2.64340       -4.60620        0.88670
