18
gdb 10985	2.7839	2.31214	1.91737	1.5648	66.62	-0.2411	0.0836	0.3247	807.5525	0.15488	-384.923378	-384.916289	-384.915345	-384.954096	28.586
C         -0.00930        1.52890        0.04140
C         -0.02550        0.02140       -0.01180
C          0.37700       -0.82020       -1.26620
C         -0.37210       -1.92570       -0.49750
O          0.41700       -2.12560        0.69690
C          0.73560       -0.75760        1.06820
C         -1.35800       -0.83170       -0.03250
O         -2.08480       -1.04400        1.13930
H          1.01260        1.92340       -0.00020
H         -0.56690        1.95900       -0.79660
H         -0.46930        1.88900        0.96850
H         -0.13670       -0.50250       -2.17590
H          1.44010       -0.98240       -1.45500
H         -0.66060       -2.89140       -0.90900
H          1.82000       -0.60240        1.03740
H          0.37220       -0.55010        2.08140
H         -2.04220       -0.48840       -0.81180
H         -1.57950       -1.68650        1.65520
