18
gdb 5325	4.53829	1.55546	1.19755	1.4141	75.43	-0.1681	0.0554	0.2235	1012.9599	0.154907	-344.002867	-343.994683	-343.993738	-344.035572	30.586
C         -0.22550        1.39680        0.04450
N          0.30380        0.04370        0.00590
C          0.02950       -0.72810        1.20000
C          0.13610       -0.65060       -1.20300
C         -0.13490       -1.99970       -1.35370
N         -0.14940       -2.27480       -2.70620
C          0.08740       -1.13240       -3.41440
C          0.26910       -0.10470       -2.51910
H          0.16680        1.98210       -0.78980
H         -1.32870        1.43560       -0.00040
H          0.09670        1.88240        0.97090
H         -1.02580       -1.04920        1.28200
H          0.65720       -1.62480        1.21320
H          0.27350       -0.13100        2.08330
H         -0.31300       -2.77500       -0.62920
H         -0.31930       -3.18020       -3.10420
H          0.11170       -1.13680       -4.49230
H          0.48550        0.91910       -2.77850
