26
gdb 8946	3.53569	1.03922	0.86478	0.0249	88.94	-0.2931	0.0849	0.378	1473.941	0.244833	-315.487648	-315.47668	-315.475736	-315.52357	40.332
C         -0.00870        1.64160        0.03670
C          0.16060        0.11820       -0.01790
C          0.70060       -0.51840        1.27990
C         -0.21630       -0.17580        2.46720
C          0.90540       -2.05870        1.16950
C          1.47560       -2.50670       -0.18650
C          1.80650       -2.58100        2.31210
C          1.70670       -4.08890        2.56820
H          0.92470        2.13200        0.33740
H         -0.28510        2.03440       -0.94700
H         -0.78660        1.94960        0.74100
H         -0.80330       -0.34590       -0.27210
H          0.83830       -0.11670       -0.84400
H          1.69000       -0.07310        1.47140
H         -1.24500       -0.49750        2.26160
H          0.10100       -0.66380        3.39210
H         -0.23880        0.89920        2.66430
H         -0.08600       -2.52440        1.28370
H          1.68850       -3.57960       -0.18500
H          0.78480       -2.31840       -1.01170
H          2.41560       -1.98670       -0.40920
H          2.84780       -2.31550        2.08170
H          1.56670       -2.06050        3.24490
H          2.36040       -4.38930        3.39350
H          0.68310       -4.37470        2.83590
H          1.99570       -4.67950        1.69340
