17
gdb 13372	6.15624	1.11358	0.99247	1.3228	68.07	-0.2527	0.022	0.2747	1190.9532	0.142344	-401.008313	-401.000207	-400.999263	-401.042	28.276
C         -0.51580        1.24530       -0.13280
C          0.83080        0.63470        0.25420
N          1.57510        0.25460       -0.94210
C          2.23350       -0.81280       -0.96100
C          3.02350       -1.36240       -2.13230
O          3.81270       -2.39360       -1.55500
C          3.10000       -2.83160       -0.43090
O          2.37980       -1.70820        0.07060
H         -0.37260        2.09860       -0.80180
H         -1.14030        0.51200       -0.65270
H         -1.05580        1.58480        0.75680
H          1.42520        1.38390        0.79460
H          0.68510       -0.21020        0.93980
H          2.34480       -1.75330       -2.90560
H          3.67790       -0.61350       -2.58040
H          2.38080       -3.62780       -0.68580
H          3.80180       -3.17950        0.33130
