19
gdb 10825	4.14351	1.47911	1.18836	2.6437	71.82	-0.211	-0.0146	0.1965	1036.5229	0.166873	-365.091446	-365.083563	-365.082619	-365.123626	30.117
C         -0.01590        1.56700        0.03570
C          0.00080        0.04020       -0.00840
C          0.66240       -0.49560       -1.29140
C          0.72960       -2.03570       -1.29320
C          1.28300       -2.58560        0.01420
O          2.12250       -3.45460        0.06290
C          0.68670       -1.94030        1.26620
N          0.64160       -0.47540        1.20870
H          1.00500        1.96810        0.01610
H         -0.54950        1.97920       -0.82580
H         -0.49970        1.91860        0.95040
H         -1.03900       -0.32110        0.01720
H          0.12400       -0.14360       -2.17960
H          1.67960       -0.08530       -1.35790
H         -0.28900       -2.43740       -1.40150
H          1.32540       -2.42620       -2.12190
H         -0.34260       -2.31080        1.38610
H          1.25820       -2.26520        2.13910
H          1.58980       -0.11080        1.26280
