20
gdb 10212	2.19005	1.43046	0.92421	2.096	73.06	-0.2421	-0.0287	0.2135	1299.0858	0.173451	-386.149684	-386.139588	-386.138644	-386.185578	34.57
C         -0.06460        1.72730       -0.21280
C          0.14550        0.23770       -0.00740
O          0.51770       -0.33870       -1.25060
C          0.74940       -1.73020       -1.19400
C          0.74750       -2.28140       -2.62790
C         -0.59360       -2.07670       -3.33550
C          2.10250       -2.02230       -0.54990
O          2.40210       -3.06730       -0.03510
H          0.85620        2.20050       -0.56530
H         -0.84720        1.90460       -0.95590
H         -0.36230        2.20220        0.72660
H          0.92560        0.05970        0.75090
H         -0.77600       -0.24000        0.36310
H         -0.03040       -2.24050       -0.60570
H          1.54830       -1.78540       -3.19020
H          1.00210       -3.34530       -2.57500
H         -0.55200       -2.45480       -4.36120
H         -1.39860       -2.60670       -2.81480
H         -0.85290       -1.01600       -3.36930
H          2.82090       -1.17290       -0.63610
