16
gdb 16121	4.39761	1.63988	1.43109	5.3602	68.92	-0.2705	0.023	0.2934	891.1909	0.133405	-342.791761	-342.785006	-342.784061	-342.822566	26.131
N         -0.01070       -1.12450        0.38430
C          0.01200        0.01590        0.19530
C          0.02670        1.42880       -0.09210
C         -0.83260        1.94330       -1.24620
C         -0.27490        3.35490       -1.54460
C          1.21220        3.30740       -1.11930
C          1.26590        2.27310       -0.00810
N          0.26430        2.32350        1.05680
H         -0.69930        1.27600       -2.10440
H         -1.89940        1.94850       -1.00260
H         -0.39760        3.62920       -2.59430
H         -0.81570        4.11000       -0.96560
H          1.84650        2.96710       -1.94580
H          1.59110        4.28490       -0.80310
H          2.22020        1.84990        0.28840
H         -0.32560        3.15020        0.99290
