20
gdb 15004	4.16157	1.46296	1.16356	1.5066	71.88	-0.2472	0.0906	0.3378	1074.7376	0.178305	-386.150793	-386.142769	-386.141825	-386.183133	30.246
C         -0.02280        1.38330        0.06820
O         -0.01880       -0.03380        0.05000
C         -1.28100       -0.60540        0.05050
C         -1.14050       -2.11270       -0.13280
C         -2.51360       -2.79190       -0.01990
C         -3.22400       -2.35440        1.26900
C         -3.23040       -0.82750        1.36800
O         -1.91530       -0.30040        1.28570
H          1.01920        1.70290       -0.00040
H         -0.57860        1.78980       -0.79060
H         -0.46540        1.77330        0.99070
H         -1.89940       -0.17520       -0.76720
H         -0.67200       -2.31720       -1.10050
H         -0.46360       -2.47520        0.64890
H         -3.13060       -2.51260       -0.88530
H         -2.40400       -3.88050       -0.05520
H         -4.25210       -2.73290        1.29970
H         -2.69810       -2.76120        2.14120
H         -3.86000       -0.40280        0.56600
H         -3.63570       -0.48680        2.32490
