17
gdb 16444	4.26588	1.96098	1.7625	0.4876	67.15	-0.2284	0.0559	0.2843	807.7356	0.142787	-363.783407	-363.776668	-363.775723	-363.813914	26.712
C          0.09890        1.53040        0.06100
C         -0.08060        0.04490       -0.03400
C         -0.97410       -0.75620        0.81530
N          0.48500       -0.93090        1.01090
C          1.04470       -1.76860       -0.12470
C          0.17530       -2.84180       -0.79740
O         -0.39940       -1.85470       -1.69870
C          0.47770       -0.82480       -1.18340
H          1.11070        1.83190       -0.23170
H         -0.61040        2.04870       -0.59510
H         -0.07140        1.87250        1.08580
H         -1.43170       -0.25490        1.66320
H         -1.58030       -1.54200        0.37800
H          2.10240       -1.96940        0.03370
H          0.75380       -3.59130       -1.35160
H         -0.57860       -3.34900       -0.18490
H          1.04710       -0.31340       -1.96260
