16
gdb 19847	3.31155	2.54	1.78695	3.196	62.68	-0.2652	0.0632	0.3284	756.4966	0.13249	-383.710023	-383.703893	-383.702949	-383.74007	24.554
C         -0.01560        1.50450       -0.03080
C          1.40350        2.10420        0.05510
C          2.19250        1.55190        1.22250
O          1.45350        1.27070        2.41280
C          1.96250        0.16400        1.66850
C          0.96610       -0.68320        0.92040
O         -0.40350       -0.60180        1.30070
C         -0.01670       -0.01580        0.05060
H         -0.61900        1.88560        0.79710
H         -0.48970        1.82950       -0.96140
H          1.96820        1.89780       -0.86420
H          1.33540        3.19480        0.13950
H          3.17460        1.99390        1.39330
H          2.76880       -0.37700        2.16240
H          1.31570       -1.68630        0.67410
H         -0.38980       -0.55770       -0.81780
