15
gdb 13328	6.58815	1.16458	1.01103	3.9943	64.05	-0.2687	-0.0238	0.2449	1108.0742	0.119379	-399.843646	-399.836108	-399.835164	-399.876635	25.999
O          0.06830       -0.02460        0.06460
C         -0.00950        1.16000       -0.01480
O          1.10820        1.94650        0.15720
C          0.97040        3.30520        0.13430
N         -0.13250        3.92580        0.15260
C          0.16050        5.36420        0.07980
C          1.69120        5.53010        0.31010
C          2.24370        4.10970        0.06830
H         -0.90820        1.75250       -0.22740
H         -0.15210        5.73470       -0.90440
H         -0.43860        5.89900        0.82260
H          2.13650        6.27860       -0.34780
H          1.88630        5.84050        1.34000
H          2.97620        3.77650        0.80810
H          2.70780        3.98580       -0.91760
