14
gdb 14501	3.87458	2.03128	1.55888	1.6106	64.05	-0.2465	0.0279	0.2744	804.0843	0.104911	-382.422336	-382.415175	-382.414231	-382.453308	27.706
O         -0.00250        1.41780       -0.11400
C          0.01050        0.01510       -0.03320
C          0.96000       -0.58030       -0.95870
C          1.79550       -0.96680       -1.73200
C         -0.11790       -0.67000        1.38110
C         -1.53120       -0.06130        1.52700
C         -1.38920       -0.65840        0.10590
O         -0.71240       -1.83230        0.69300
H          0.88310        1.70850       -0.35430
H          2.51870       -1.33880       -2.41530
H          0.65320       -0.86230        2.12710
H         -2.19460       -0.62530        2.18250
H         -1.62260        1.01940        1.62810
H         -2.13690       -0.83440       -0.66700
