18
gdb 20110	5.60731	1.17444	1.14389	2.5041	74.65	-0.242	-0.0127	0.2294	1115.6475	0.153987	-347.804454	-347.796549	-347.795604	-347.837473	29.23
O          0.00270       -0.04120       -0.00360
C         -0.01390        1.17850        0.00360
C          1.24790        1.97230        0.03850
C          2.42160        1.37960        0.80820
C          2.45780        1.38770       -0.67950
C         -1.29670        1.93810       -0.02290
C         -2.45410        1.32220       -0.79900
C         -2.49010        1.31310        0.68870
H          1.14510        3.05130        0.04200
H          3.05190        2.07120        1.35520
H          2.22450        0.43250        1.29680
H          2.28480        0.44590       -1.18720
H          3.11380        2.08480       -1.18790
H         -1.22320        3.01950       -0.01450
H         -3.10310        2.00240       -1.33850
H         -2.23150        0.38620       -1.29790
H         -2.29160        0.37090        1.18610
H         -3.16480        1.98650        1.20460
