16
gdb 2042	4.57056	2.4829	2.21724	2.551	59.86	-0.2286	0.0684	0.297	669.6086	0.136195	-325.725266	-325.718471	-325.717527	-325.755329	26.471
C         -0.07490        1.58380        0.01180
C          0.04590        0.06610        0.01600
O         -1.22880       -0.53910       -0.14370
C          1.13560       -0.62120       -0.86640
N          1.68860       -1.39060        0.30680
C          2.17350       -0.36590        1.24640
C          0.72280       -0.62760        1.19820
H          0.88530        2.07190        0.19910
H         -0.43750        1.93680       -0.96230
H         -0.78740        1.90720        0.77690
H         -1.62300       -0.19120       -0.95100
H          0.69530       -1.30670       -1.59280
H          1.87560        0.02070       -1.35810
H          2.72650       -0.78430        2.08200
H          2.58510        0.56280        0.85580
H          0.17310       -1.11260        1.99810
