19
gdb 8477	2.85767	1.95068	1.54354	1.0128	72.29	-0.2169	0.0774	0.2943	924.2155	0.164204	-365.027309	-365.01874	-365.017795	-365.059609	32.634
C         -0.08500        1.55040        0.06500
C          0.14060        0.07200        0.00610
C          0.67400       -0.73930       -1.18310
C          1.29630       -1.75450       -0.15820
O          2.70880       -1.74650       -0.11560
C          0.73790       -0.89100        0.98140
C          1.34640       -0.72750        2.33760
N         -0.73170       -0.88510        0.74580
H          0.77580        2.09580       -0.33660
H         -0.96660        1.84070       -0.51930
H         -0.24420        1.88640        1.09580
H         -0.07960       -1.11950       -1.87800
H          1.47140       -0.22320       -1.72440
H          0.89460       -2.77580       -0.19760
H          3.03430       -2.18670       -0.90690
H          2.43020       -0.60970        2.25290
H          0.94110        0.15130        2.85120
H          1.15100       -1.60350        2.96770
H         -1.14420       -0.36740        1.52360
