15
gdb 18624	3.05612	2.33124	1.8619	4.9829	60.31	-0.2673	0.0155	0.2828	767.4975	0.120101	-399.818294	-399.811506	-399.810562	-399.849252	25.334
C         -0.06040        1.54330        0.05310
C         -0.00360        0.04260       -0.10560
C          0.70600       -0.65940       -1.20310
C          1.74570        0.09110       -2.02080
O          2.71690        0.52740       -1.06500
C          2.41620        0.06100        0.18850
O          3.08400        0.30800        1.14330
N          1.23820       -0.74870        0.16880
H          0.79700        2.05340       -0.39160
H         -0.96950        1.92420       -0.42320
H         -0.09890        1.81220        1.11310
H         -0.87220       -0.47270        0.29800
H          0.29580       -1.57270       -1.62230
H          2.23140       -0.57170       -2.74380
H          1.35640        0.96580       -2.55170
