15
gdb 14858	3.1751	1.61951	1.18679	3.1235	61.26	-0.2685	0.01	0.2785	977.1426	0.119021	-399.782989	-399.775144	-399.7742	-399.815959	27.533
O         -0.06000        1.40480       -0.26570
C          0.06580        0.00650       -0.11810
C         -1.28400       -0.58580        0.25300
O         -2.26000       -0.29040       -0.77790
C         -2.40840       -1.67970       -1.12250
C         -1.50630       -2.11810        0.06400
C         -0.35740       -2.95470       -0.23460
N          0.55330       -3.62260       -0.48190
H         -0.76000        1.54580       -0.91530
H          0.44590       -0.47090       -1.03460
H          0.79420       -0.17540        0.67900
H         -1.61520       -0.19600        1.22150
H         -3.44960       -2.01100       -1.06490
H         -2.00170       -1.91320       -2.11220
H         -2.07120       -2.56260        0.88520
