13
gdb 944	5.80255	2.73605	1.86194	1.8847	63.35	-0.2112	-0.0104	0.2008	649.0553	0.105483	-303.566436	-303.560858	-303.559914	-303.595433	21.975
N         -0.02480        1.37890        0.17320
C          0.02350        0.00100        0.06700
N         -1.15640       -0.63020        0.04690
C         -1.14710       -1.96530        0.00280
C          0.00620       -2.73740       -0.03340
C          1.23130       -2.06780       -0.02020
C          1.25150       -0.68570        0.03300
H          0.75840        1.89280       -0.19790
H         -0.92630        1.76940       -0.05770
H         -2.12590       -2.44030       -0.00920
H         -0.05110       -3.81830       -0.07430
H          2.16390       -2.62250       -0.04950
H          2.18650       -0.13580        0.05390
