18
gdb 10085	2.79898	1.27396	0.97104	3.3783	65.59	-0.2438	-0.0201	0.2237	1204.1892	0.150665	-422.068029	-422.058402	-422.057458	-422.103575	32.692
C          0.03700        1.31750       -0.11830
O         -0.05840       -0.09060       -0.01410
C         -1.39390       -0.60240       -0.02080
C         -1.84080       -0.80760       -1.47450
O         -0.94260       -1.65100       -2.16540
C         -1.37100       -1.92330        0.75910
C         -0.93460       -1.75430        2.19650
O         -1.53270       -2.19890        3.14390
H          1.10010        1.56760       -0.09380
H         -0.39230        1.70070       -1.05430
H         -0.46580        1.81480        0.72360
H         -2.07020        0.11310        0.47260
H         -2.82630       -1.28370       -1.50470
H         -1.93340        0.17230       -1.96980
H         -0.06130       -1.30280       -1.97930
H         -2.35590       -2.39790        0.74450
H         -0.66290       -2.59190        0.25290
H          0.00570       -1.17730        2.32770
