15
gdb 12400	3.05849	2.2056	1.36237	2.468	56.81	-0.2528	-0.0036	0.2492	863.0721	0.120703	-436.958614	-436.95132	-436.950376	-436.990404	26.581
N         -0.12440        1.48870        0.02600
C         -0.04120        0.03970       -0.05540
C         -1.43070       -0.59660        0.00920
O         -1.30570       -1.99830       -0.18610
C         -0.83740       -2.27610       -1.45700
O          0.45270       -1.70890       -1.74120
C          0.76370       -0.47770       -1.26330
O          1.68220        0.13490       -1.73450
H          0.81780        1.86720       -0.01990
H         -0.59290        1.84740       -0.80310
H          0.51660       -0.31960        0.82030
H         -1.88790       -0.43800        0.98670
H         -2.09330       -0.16100       -0.75780
H         -0.71380       -3.35640       -1.54340
H         -1.53190       -1.90570       -2.22820
