13
gdb 21724	5.13371	1.43279	1.14367	3.8873	55.47	-0.2537	-0.0179	0.2358	975.5854	0.096696	-431.912818	-431.905539	-431.904595	-431.945024	25.769
N          0.53820        0.17490       -0.83140
C         -0.01050        0.70160        0.41470
C          0.60970        0.00640        1.58180
N          0.99990       -1.23220        1.65280
C          1.42790       -1.31110        2.95540
O          1.92570       -2.43130        3.47520
N          1.31640       -0.21570        3.66220
O          0.76190        0.68010        2.71990
H          0.46050       -0.83760       -0.83100
H         -0.00680        0.51810       -1.61510
H          0.20920        1.77140        0.49660
H         -1.10590        0.59780        0.52210
H          1.92070       -3.09610        2.77590
