20
gdb 18012	4.21574	1.41463	1.27951	1.8163	74.16	-0.2376	0.0788	0.3164	1043.1086	0.17771	-348.972104	-348.964255	-348.963311	-349.00473	29.669
C          0.10150        1.51010        0.15560
C          0.02920       -0.01620        0.03740
C          0.64800       -0.53480       -1.25620
C          2.20600       -0.47380       -1.42410
C          2.21860       -1.98390       -1.75400
O          2.46730       -2.80600       -0.59460
C          1.04990       -2.99460       -0.37030
C          0.68040       -2.06860       -1.54250
H          1.13870        1.86060        0.11990
H         -0.44010        1.99690       -0.66320
H         -0.33410        1.85780        1.09730
H          0.53700       -0.46750        0.89880
H         -1.01880       -0.34040        0.09300
H          0.16480       -0.03110       -2.10120
H          2.55100        0.17970       -2.22960
H          2.76830       -0.24450       -0.51480
H          2.76370       -2.33070       -2.63610
H          0.76170       -4.04280       -0.52340
H          0.74090       -2.68990        0.63660
H         -0.02820       -2.45620       -2.27410
