22
gdb 6851	3.14572	1.7127	1.50035	0.2377	83.58	-0.2357	0.032	0.2677	994.795	0.201514	-313.099667	-313.091434	-313.09049	-313.131493	33.025
C          0.00920        1.53000       -0.00260
C         -0.03670       -0.01130        0.00040
C         -1.51470       -0.45770        0.05980
C          0.64950       -0.54450       -1.27950
C          1.04480       -2.02200       -1.17280
C          2.02930       -2.24080       -0.01550
C          1.60760       -1.49280        1.22240
C          0.69190       -0.52510        1.22610
H          1.04170        1.89400        0.00070
H         -0.48960        1.93120       -0.89220
H         -0.49620        1.94320        0.87750
H         -2.08300       -0.03010       -0.77450
H         -1.60930       -1.54640        0.01600
H         -1.98610       -0.12460        0.99090
H         -0.00860       -0.38300       -2.14170
H          1.55570        0.04770       -1.46410
H          0.15040       -2.63420       -1.00550
H          1.48370       -2.36560       -2.11570
H          2.12210       -3.31060        0.21080
H          3.03940       -1.91800       -0.31120
H          2.09080       -1.77390        2.15580
H          0.42720       -0.04330        2.16680
