12
gdb 21805	6.32359	1.17958	1.08154	1.5579	56.64	-0.2737	-0.0649	0.2087	1015.456	0.082934	-414.623819	-414.616887	-414.615943	-414.656874	23.327
O         -0.38780        0.96340        1.03010
C          0.05850        1.17050       -0.06460
C          1.46690        1.70640       -0.32440
C          1.45040        2.88230       -1.24800
N          1.68030        2.77050       -2.53130
O          1.54520        4.02500       -3.04980
N          1.22690        4.93370       -2.08140
C          1.16170        4.25160       -0.97310
H         -0.52890        0.97440       -0.98810
H          1.92620        1.95240        0.63580
H          2.04180        0.90100       -0.79660
H          0.92400        4.73090       -0.03590
