16
gdb 5740	3.78676	2.16715	1.41325	1.5784	73.19	-0.1717	0.0576	0.2292	861.4064	0.133153	-342.779527	-342.772415	-342.77147	-342.810991	26.753
N          0.01600        1.48660       -0.05950
C         -0.03940        0.07900       -0.07770
C         -1.08910       -0.82260        0.03530
C         -0.59540       -2.15910       -0.16570
C          0.75710       -2.01690       -0.33990
C          2.14490       -2.40240       -0.82930
C          2.42910       -0.85130       -0.83430
N          1.07660       -0.68400       -0.27510
H          0.52510        1.84320        0.74440
H         -0.91910        1.87400       -0.02900
H         -2.10700       -0.55340        0.27920
H         -1.18110       -3.06500       -0.16440
H          2.76750       -2.97700       -0.13740
H          2.19350       -2.86830       -1.81700
H          3.23270       -0.49910       -0.18120
H          2.54550       -0.41330       -1.82960
