14
gdb 20636	7.09715	1.27808	1.0904	3.3017	74.07	-0.2271	-0.0025	0.2246	1042.5916	0.107638	-341.58293	-341.575382	-341.574438	-341.614989	27.507
C         -0.03890        1.51410        0.09990
C         -0.00170        0.03080       -0.06560
C         -0.03880       -0.77350       -1.18340
C          0.03110       -2.10460       -0.69210
N          0.10670       -2.12350        0.64540
N          0.08470       -0.82600        0.98950
C          0.02650       -3.30090       -1.45350
C          0.01990       -4.29410       -2.13300
H          0.86660        1.89240        0.58790
H         -0.11710        1.99690       -0.87610
H         -0.89710        1.83550        0.70110
H         -0.10660       -0.45960       -2.21210
H          0.13190       -0.58850        1.96680
H          0.01500       -5.17760       -2.72220
