20
gdb 12006	3.119	1.98572	1.73601	1.4087	73.19	-0.2267	0.0838	0.3105	880.1328	0.177339	-348.998873	-348.991103	-348.990159	-349.030208	31.033
C         -0.41790        1.61860        0.02660
C          0.01260        0.14820        0.05390
C         -1.20580       -0.77960       -0.09790
C          1.06000       -0.16070       -1.05310
O          1.89350       -1.21070       -0.56730
C          1.91640       -1.11620        0.83490
C          2.21940        0.21850        1.46480
C          0.78290       -0.25830        1.31270
H          0.43270        2.28560        0.19840
H         -0.86400        1.88160       -0.93970
H         -1.16570        1.82340        0.79990
H         -1.76710       -0.54320       -1.00850
H         -0.89110       -1.82620       -0.15450
H         -1.88940       -0.67550        0.75160
H          0.60610       -0.49960       -1.98910
H          1.66020        0.73380       -1.27510
H          2.23050       -2.04320        1.29930
H          2.63400        0.20830        2.46730
H          2.58730        1.02760        0.84310
H          0.21270       -0.50060        2.20280
