16
gdb 12335	2.62675	2.26969	1.52553	4.0745	66.29	-0.232	-0.0213	0.2107	861.4006	0.131102	-383.763768	-383.756239	-383.755295	-383.795769	27.961
O         -0.00400        1.41460       -0.04620
C          0.01180       -0.02090       -0.02150
C          0.76660       -0.54250        1.17170
C          0.16780       -1.10460        2.22460
C         -1.31670       -1.32800        2.33820
C         -2.11990       -0.49440        1.31610
C         -1.43160       -0.54820       -0.03510
O         -1.94890       -0.97890       -1.03680
H         -0.00430        1.71630        0.86850
H          0.48050       -0.32980       -0.96080
H          1.84570       -0.41040        1.15570
H          0.77350       -1.44760        3.06050
H         -1.53050       -2.39570        2.18830
H         -1.65220       -1.10260        3.35720
H         -3.14820       -0.84700        1.21860
H         -2.14250        0.55190        1.64560
