18
gdb 414	5.14779	2.74148	2.30804	0.1151	63.52	-0.2627	0.0859	0.3486	658.7763	0.165551	-235.696677	-235.689426	-235.688482	-235.727158	27.138
C          0.14750        1.46810        0.23870
C         -0.15370        0.01760       -0.15890
C          0.67040       -0.49530       -1.33240
C          0.43570        0.20660       -2.65760
C          2.06630       -0.99420       -1.03850
C          0.96650       -1.97530       -1.37620
H          1.20850        1.59770        0.47760
H         -0.09990        2.16940       -0.56440
H         -0.43340        1.76050        1.11910
H          0.02330       -0.63350        0.70610
H         -1.22130       -0.08050       -0.39970
H          0.70270        1.26800       -2.60950
H          1.03480       -0.24560       -3.45410
H         -0.61770        0.14210       -2.95680
H          2.84260       -0.82200       -1.77690
H          2.41880       -0.95960       -0.01250
H          0.58000       -2.60120       -0.57820
H          0.99860       -2.46360       -2.34480
