20
gdb 12791	3.4311	1.97428	1.55308	0.3614	79.87	-0.2193	0.0248	0.2441	908.334	0.179026	-311.881465	-311.874112	-311.873168	-311.912378	29.946
C          0.01960        1.49490       -0.00960
C         -0.03930       -0.01920        0.03050
C         -0.84030       -0.65450        1.13410
C          0.68560       -0.72680        1.16250
C          1.35370       -2.01610        0.86270
C          1.11770       -2.70770       -0.25400
C          0.15770       -2.21920       -1.30860
C          0.05050       -0.68170       -1.33750
H          0.93830        1.84220       -0.49700
H         -0.82850        1.90910       -0.56840
H         -0.00700        1.92230        0.99780
H         -1.32830        0.00240        1.84710
H         -1.37190       -1.58130        0.94850
H          1.17580       -0.09970        1.90120
H          2.04960       -2.39810        1.60510
H          1.61010       -3.66170       -0.41940
H          0.46760       -2.57530       -2.29790
H         -0.83510       -2.66110       -1.14260
H         -0.80610       -0.38270       -1.95430
H          0.94350       -0.28220       -1.83720
