17
gdb 15653	3.31668	1.75228	1.25596	2.3656	64.08	-0.2484	0.0132	0.2616	960.7602	0.143067	-401.012413	-401.004518	-401.003574	-401.045754	28.656
C         -0.29140        1.53190       -0.14040
C          0.04580        0.05240       -0.02590
O          1.06370       -0.27240       -1.02580
C          2.09930       -0.79880       -0.34270
N          2.02140       -0.95620        0.91210
C          0.68510       -0.45590        1.30510
C          0.86590        0.55090        2.44770
O          1.50350       -0.06830        3.54320
H          0.58240        2.15890        0.05350
H         -0.65480        1.75410       -1.14720
H         -1.07750        1.80080        0.57170
H         -0.83380       -0.54540       -0.28200
H          2.95670       -1.05610       -0.95570
H          0.11280       -1.29850        1.70990
H          1.43780        1.42110        2.08930
H         -0.10530        0.91130        2.80400
H          2.26290       -0.53640        3.17220
