16
gdb 9068	6.22967	0.84562	0.78711	1.865	68.5	-0.2633	-0.0434	0.2198	1384.0446	0.127178	-383.715241	-383.706285	-383.705341	-383.749382	31.596
O         -0.01890        1.45930       -0.04250
C          0.00870        0.05880       -0.00610
C          0.68730       -0.52510       -1.25800
C         -0.02790       -0.07040       -2.54530
C          0.60590       -0.58990       -3.74950
C          1.14850       -1.03320       -4.72620
C          0.71430       -0.42130        1.24560
O          1.17740        0.35230        2.04850
H          0.44030        1.75220        0.76080
H         -1.02210       -0.34140        0.04320
H          1.73110       -0.19450       -1.28720
H          0.68870       -1.61980       -1.20180
H         -1.07750       -0.39200       -2.51220
H         -0.04180        1.02460       -2.56710
H          1.61890       -1.41530       -5.59790
H          0.78680       -1.51940        1.38230
