10
gdb 14584	24.20402	0.54562	0.54412	2.4353	83.38	-0.289	-0.1069	0.1822	1835.6311	0.057428	-380.094052	-380.08581	-380.084866	-380.128183	25.708
O         -0.22370        0.17260        0.68670
C         -0.02210        1.14940        0.00400
C          1.21150        1.89530        0.01570
C          2.24280        2.53820        0.00940
C          3.38950        3.25200        0.00240
C          4.42080        3.89490       -0.00370
C          5.65400        4.64100       -0.03060
O          5.86800        5.61120        0.65770
H         -0.78420        1.54960       -0.69310
H          6.40330        4.24750       -0.74510
