22
gdb 11963	2.67558	1.90624	1.68392	0.1259	81.65	-0.2607	0.0851	0.3458	954.6655	0.199449	-313.055637	-313.047005	-313.04606	-313.088078	34.049
C         -0.45000        1.45320        0.18920
C         -0.01580        0.00140        0.01370
C         -1.17660       -0.85860       -0.49530
C          1.28960       -0.21770       -0.82350
C          1.85180       -1.14510        0.29100
C          0.72470       -0.65840        1.20890
C          0.92280       -0.06830        2.57550
C          0.14590       -1.35450        2.40370
H          0.37380        2.07490        0.55330
H         -0.79340        1.87310       -0.76360
H         -1.27870        1.54200        0.90240
H         -1.54420       -0.48530       -1.45820
H         -0.87270       -1.90140       -0.63280
H         -2.01630       -0.84880        0.20880
H          1.15610       -0.66310       -1.81300
H          1.86890        0.70310       -0.93260
H          1.77650       -2.20830        0.04150
H          2.87390       -0.94300        0.62290
H          1.91500       -0.12120        3.01360
H          0.36840        0.82600        2.84220
H         -0.92920       -1.31940        2.55240
H          0.60640       -2.28310        2.72760
