13
gdb 10466	3.09997	1.63707	1.21124	4.3577	60.12	-0.2947	-0.0213	0.2735	957.2898	0.09376	-398.609776	-398.602091	-398.601147	-398.642391	26.749
O          0.10320        0.00770        0.13270
C          0.09990        1.19190        0.24360
O          1.07930        1.96470       -0.30930
C          0.98680        3.35620       -0.09150
C          1.40470        3.90160        1.26260
C          2.31150        4.05650        0.07530
C         -0.07180        4.01180       -0.82320
N         -0.92630        4.53600       -1.39960
H         -0.66050        1.78300        0.78380
H          0.87760        4.77010        1.63860
H          1.66500        3.15660        2.00560
H          3.17740        3.40890        0.00670
H          2.42030        5.03390       -0.37770
