15
gdb 18868	3.92131	2.35036	1.96033	1.8734	67.15	-0.2103	-0.0421	0.1681	716.0185	0.118976	-362.529398	-362.522984	-362.52204	-362.559718	25.262
O          0.12260        1.36690       -0.59290
C          0.11480        0.04820       -0.14210
C         -1.26240       -0.71540       -0.05800
C         -0.62990       -1.97320       -0.51720
N         -1.80720       -1.52210       -1.22830
C         -1.32950       -1.26030       -2.61720
C          0.10490       -0.79220       -2.41350
C          0.46240       -1.08330       -1.14690
H          0.84220        1.83980       -0.16610
H          0.58070       -0.03660        0.84960
H         -1.97700       -0.57350        0.74620
H         -0.54190       -2.94000       -0.03770
H         -1.49770       -2.18260       -3.18750
H         -1.89950       -0.45880       -3.10070
H          0.46400        0.09420       -2.92560
