16
gdb 16035	3.5249	1.72581	1.40567	1.0038	72.54	-0.233	0.0311	0.2641	920.4949	0.129013	-346.527697	-346.52	-346.519055	-346.559369	29.226
C          0.00070        1.55640        0.01510
C          0.07260        0.04740        0.06070
C          1.32470       -0.72950       -0.17570
O          2.47570       -0.03170        0.29010
C          1.99240       -0.09140        1.65660
C          0.68180       -0.75540        1.21900
C         -0.01220       -1.76800        1.93020
C         -0.59950       -2.61830        2.54840
H          0.97410        2.00270        0.22970
H         -0.30080        1.88950       -0.98340
H         -0.72940        1.94290        0.73330
H         -0.80450       -0.47050       -0.32140
H          1.46950       -1.51010       -0.91430
H          2.62010       -0.75810        2.25580
H          1.93150        0.89600        2.12720
H         -1.11770       -3.37040        3.08960
