15
gdb 3541	5.90176	2.94447	2.55915	2.1197	59.49	-0.226	0.0786	0.3046	576.8826	0.127512	-308.459859	-308.454847	-308.453903	-308.488339	20.642
C         -0.02850        1.58370       -0.00900
C          1.50820        1.86900       -0.02270
C          2.04880        0.44430        0.01270
C          1.14300       -0.48520       -0.84870
O          1.36030       -1.61160        0.06960
C          1.15010       -0.43830        0.92900
C         -0.02110        0.06010        0.03110
H         -0.52740        2.01730        0.86320
H         -0.53460        1.97090       -0.89870
H          1.82620        2.40910       -0.91980
H          1.83330        2.45560        0.84210
H          3.12230        0.25870        0.01330
H          1.17090       -0.68680       -1.92050
H          1.18660       -0.58330        2.00970
H         -0.95630       -0.49840        0.04960
