18
gdb 20096	4.45792	1.52599	1.37428	1.9016	71.6	-0.2265	0.0748	0.3014	954.3107	0.15414	-347.73966	-347.732447	-347.731503	-347.771604	27.925
C         -0.09260        1.46950       -0.18590
C          1.28780        0.92260        0.07830
C          0.09980       -0.01290        0.02750
C         -0.37550       -0.70700        1.25280
C         -0.38000       -2.21910        1.41360
C         -1.65280       -1.45040        1.59160
O         -1.72250       -0.90000        2.90900
C         -0.54160       -0.09590        2.64650
H         -0.56850        2.04660        0.59940
H         -0.33020        1.81070       -1.18740
H          2.00340        0.89460       -0.73580
H          1.73020        1.12160        1.04900
H          0.02840       -0.62430       -0.86810
H         -0.28760       -2.76540        0.47900
H          0.07930       -2.69760        2.27520
H         -2.58250       -1.61530        1.05860
H          0.25690       -0.27280        3.37740
H         -0.80410        0.96830        2.63860
