16
gdb 12384	2.85502	2.29086	1.49497	3.3955	60.48	-0.2659	0.0045	0.2704	852.5555	0.131534	-420.914026	-420.906661	-420.905717	-420.945952	26.908
C         -0.17290        1.48130        0.04700
C          0.04730       -0.04170       -0.03800
C          0.86380       -0.42920       -1.27440
O          2.22950       -0.09260       -1.05560
C          2.75070       -0.87240       -0.03920
O          2.06530       -0.73010        1.21450
C          0.72590       -0.50400        1.25220
O          0.14320       -0.59590        2.29690
H          0.78420        2.00980        0.02370
H         -0.77330        1.82200       -0.80210
H         -0.69510        1.74080        0.97010
H         -0.92690       -0.53990       -0.06220
H          0.77700       -1.50630       -1.48800
H          0.53740        0.12390       -2.15870
H          2.72490       -1.94160       -0.30510
H          3.77750       -0.55060        0.14170
