18
gdb 15163	7.95087	0.67791	0.65162	1.4309	77.68	-0.2406	0.0342	0.2749	1714.3492	0.152329	-347.751345	-347.742038	-347.741094	-347.788621	32.075
O         -0.05210        1.41600        0.15130
C         -0.05300       -0.00790        0.17110
C         -1.41370       -0.50120        0.00170
C         -2.53250       -0.92340       -0.13500
C         -3.88300       -1.45370       -0.30560
C         -3.95090       -2.96790       -0.16170
C         -4.08850       -3.59310        1.20020
C         -5.24800       -3.62420        0.23260
H          0.86000        1.70200        0.26520
H          0.58210       -0.41530       -0.63290
H          0.35480       -0.39090        1.12120
H         -4.55360       -0.99280        0.43210
H         -4.27040       -1.16000       -1.29060
H         -3.33380       -3.50420       -0.87650
H         -3.55830       -4.51720        1.40130
H         -4.16000       -2.92880        2.05520
H         -6.09890       -2.98320        0.44070
H         -5.51030       -4.56850       -0.23160
