13
gdb 4377	3.89359	1.85322	1.2556	4.5157	63.76	-0.2218	-0.017	0.2049	880.9753	0.097148	-398.654682	-398.648168	-398.647224	-398.68506	25.382
O          0.10690        1.34690        0.09580
C          0.07710       -0.01020        0.02070
C          0.13950       -0.71100       -1.18190
C          0.10100       -2.10320       -1.14040
O          0.15520       -2.88440       -2.25170
C          0.00180       -2.73680        0.10150
N         -0.05730       -2.06020        1.24590
C         -0.02110       -0.73030        1.21470
H          0.17560        1.71850       -0.78980
H          0.21630       -0.18360       -2.13100
H          0.22180       -2.32850       -3.03500
H         -0.02900       -3.82130        0.14640
H         -0.07040       -0.19500        2.15830
