18
gdb 14267	3.04575	2.58604	1.81632	1.5253	71.61	-0.2369	0.0112	0.2481	791.5251	0.156963	-347.79432	-347.787921	-347.786977	-347.82451	26.122
C         -0.03440        1.59890        0.18510
C          1.47090        1.43230       -0.11280
C          2.38740        1.33320        1.12030
C          2.41430       -0.06870        1.77190
C          1.08460       -0.73360        2.05590
C          0.00700       -0.71120        1.26940
C         -0.06510        0.06180       -0.01830
O          1.22120        0.12450       -0.69390
H         -0.32660        1.97970        1.16450
H         -0.55830        2.14140       -0.60470
H          1.88940        2.11750       -0.85710
H          3.41530        1.58780        0.83760
H          2.07370        2.08670        1.85320
H          2.99100       -0.73410        1.11770
H          2.98320        0.00160        2.70550
H          1.03690       -1.31530        2.97400
H         -0.89310       -1.24140        1.57150
H         -0.84040       -0.33290       -0.68260
