20
gdb 12530	3.29779	1.79592	1.22715	0.6114	84.21	-0.2101	-0.0202	0.1899	1027.1197	0.179045	-311.889577	-311.881793	-311.880848	-311.922071	30.263
C         -0.11270        1.55500        0.03970
C          0.00530        0.02140        0.00970
C          0.62180       -0.44510       -1.32480
C          0.42590       -1.92370       -1.67520
C          1.05850       -2.93760       -0.76520
C          1.47180       -2.79240        0.50260
C          1.38820       -1.63810        1.39390
C          0.76840       -0.46190        1.21940
H          0.87420        2.02430       -0.04520
H         -0.73070        1.92010       -0.78630
H         -0.56450        1.89830        0.97610
H         -1.01640       -0.38610        0.06710
H          0.17910        0.14820       -2.13400
H          1.69300       -0.21020       -1.31860
H         -0.64940       -2.14440       -1.76050
H          0.82120       -2.08850       -2.68720
H          1.19820       -3.91880       -1.21580
H          1.92780       -3.66740        0.96200
H          1.88040       -1.78630        2.35310
H          0.81600        0.24560        2.04560
