15
gdb 2083	4.83703	2.57553	1.77679	4.2037	57.5	-0.2353	0.0609	0.2962	698.4414	0.128893	-341.890999	-341.884586	-341.883641	-341.921343	23.871
O          0.00100       -0.06490       -0.13980
C         -0.01340        1.14470        0.01430
N         -1.18700        1.85590        0.15520
C         -1.29080        3.30390        0.08050
C         -0.04230        3.93050        0.70010
C          1.20600        3.33800        0.04740
N          1.14370        1.88770        0.12360
H         -2.00310        1.29690       -0.03430
H         -1.40230        3.65270       -0.95920
H         -2.18730        3.62250        0.62290
H         -0.05890        5.01530        0.56310
H         -0.02520        3.72190        1.77490
H          1.28070        3.68980       -0.99460
H          2.10750        3.68090        0.56630
H          1.96930        1.35110       -0.08800
