13
gdb 20338	5.48458	2.23305	1.87563	3.4658	61.89	-0.2553	-0.0165	0.2389	690.1667	0.098872	-357.589934	-357.584628	-357.583684	-357.619233	20.816
C         -0.03790        1.39300       -0.16880
C          1.32360        0.80700        0.08740
C          0.09320       -0.10520        0.09490
C          0.67110       -0.69750       -1.17330
N          0.44670       -1.11800       -2.39850
C          1.51630       -0.53920       -3.05640
N          2.30650        0.26020       -2.34360
N          1.79080        0.05640       -1.09680
H         -0.45830        1.98150        0.64270
H         -0.29380        1.74180       -1.16360
H          1.99660        1.07970        0.88790
H         -0.36360       -0.60990        0.93300
H          1.71700       -0.73430       -4.10060
