22
gdb 10362	2.24816	1.69126	1.12352	1.9604	74.64	-0.2484	0.0738	0.3222	1163.7492	0.197893	-387.333698	-387.323371	-387.322427	-387.369095	36.971
C          0.06600        1.30270        0.13250
O          0.08690       -0.10380        0.01420
C          0.70710       -0.60070       -1.18020
C          2.21250       -0.71240       -0.91050
O          2.47410       -1.56840        0.18550
C          0.02090       -1.93620       -1.51900
C         -1.48230       -1.72930       -1.74810
C          0.66830       -2.62480       -2.72850
H          1.07340        1.74260        0.14940
H         -0.49840        1.76610       -0.69030
H         -0.43060        1.53860        1.07730
H          0.53990        0.11060       -2.00660
H          2.73770       -1.12180       -1.77770
H          2.62300        0.29550       -0.73400
H          1.85540       -1.29640        0.87520
H          0.15530       -2.58450       -0.64500
H         -1.98640       -2.68910       -1.89960
H         -1.94360       -1.22870       -0.89460
H         -1.66250       -1.11810       -2.64150
H          1.69610       -2.93590       -2.52540
H          0.10210       -3.52120       -2.99990
H          0.67710       -1.96610       -3.60600
