18
gdb 11289	3.86262	1.43373	1.2709	1.835	73.12	-0.2503	0.0414	0.2917	1026.8203	0.153259	-347.777624	-347.769364	-347.76842	-347.81071	30.527
C         -0.32020        1.32030       -0.05940
C          0.13000       -0.12870        0.10700
C          0.93020       -0.68090       -1.08440
O          1.81980       -1.67910       -0.57610
C          1.74290       -1.72480        0.85290
C          1.10690       -0.38370        1.26550
C          0.96030       -2.88180        1.30550
C          0.31680       -3.82480        1.68250
H          0.54020        1.98650       -0.19090
H         -0.96920        1.43660       -0.93390
H         -0.88090        1.66470        0.81520
H         -0.74960       -0.76550        0.25940
H          0.28890       -1.12850       -1.85220
H          1.52470        0.11390       -1.55930
H          2.76730       -1.82280        1.23050
H          1.88160        0.39120        1.28840
H          0.62690       -0.42630        2.24480
H         -0.24460       -4.66440        2.01070
