14
gdb 15204	2.5049	1.9432	1.50444	6.1156	66.54	-0.3063	-0.0095	0.2968	886.2328	0.107037	-341.602896	-341.595012	-341.594068	-341.63532	27.797
C         -0.09870        1.55180       -0.00850
C          0.03470        0.04820        0.03740
C          1.36550       -0.63700       -0.21010
C          2.54780        0.13590       -0.46920
N          3.49780        0.75260       -0.70180
C          0.73170       -0.65040        1.18980
C          1.31150        0.10970        2.26150
N          1.75900        0.71580        3.13860
H          0.78550        2.04890        0.39650
H         -0.23550        1.88830       -1.04030
H         -0.96650        1.87290        0.57480
H         -0.81600       -0.50210       -0.35300
H          1.34540       -1.59050       -0.72710
H          0.33680       -1.61180        1.50050
