20
gdb 9146	4.94071	0.74042	0.68692	1.4113	81.03	-0.2423	0.0599	0.3022	1700.5253	0.174655	-348.983529	-348.973086	-348.972142	-349.020173	35.948
C          0.13090        1.43520       -0.42220
C         -0.05630        0.14670        0.39970
C         -1.41370       -0.38590        0.32860
C         -2.54150       -0.80240        0.24460
C         -3.90240       -1.33170        0.16980
C         -3.92390       -2.79910       -0.30000
C         -4.60930       -1.16420        1.52510
O         -5.96200       -1.55990        1.35830
H          1.16040        1.79660       -0.33870
H         -0.08740        1.25650       -1.47860
H         -0.54100        2.22200       -0.06860
H          0.65340       -0.61490        0.05140
H          0.20500        0.34130        1.44800
H         -4.47490       -0.73340       -0.55280
H         -3.34600       -3.42830        0.38460
H         -4.95270       -3.16410       -0.32630
H         -3.48510       -2.89260       -1.29660
H         -4.09600       -1.78190        2.27840
H         -4.53390       -0.11480        1.84510
H         -6.39750       -1.51460        2.21400
