16
gdb 12141	5.15016	1.53535	1.41876	3.3815	65.21	-0.247	0.076	0.323	912.1671	0.128853	-383.679946	-383.67273	-383.671786	-383.71114	27.686
C          0.07950        1.51940       -0.02540
C         -0.08250        0.04290        0.12480
C         -1.37920       -0.79550        0.03870
C         -0.71850       -1.76140        1.05320
C         -1.33490       -2.47960        2.16770
O         -0.78250       -3.17010        1.03610
C          0.54890       -0.93310        1.04370
O          0.96560       -0.82090       -0.32910
H          1.09620        1.82050        0.23980
H         -0.10760        1.82560       -1.06070
H         -0.62720        2.05540        0.61600
H         -2.27050       -0.30110        0.43370
H         -1.58250       -1.20940       -0.95100
H         -0.79140       -2.61080        3.10300
H         -2.42050       -2.51060        2.25230
H          1.31030       -0.81770        1.80720
