17
gdb 4083	4.12204	1.50681	1.19727	0.4903	68.06	-0.2378	0.008	0.2457	991.7163	0.14357	-400.967871	-400.960513	-400.959569	-400.99946	28.235
O         -0.04610        1.36890        0.01680
N          0.05560       -0.03430        0.01290
C         -1.08480       -0.60870       -0.00710
C         -2.43840        0.05220        0.01650
C         -3.31170       -0.61430        1.09710
O         -3.35440       -2.02160        0.95280
C         -2.07280       -2.60790        1.09200
C         -1.11000       -2.11390       -0.00200
H          0.87920        1.63340        0.04230
H         -2.34940        1.12410        0.19660
H         -2.92160       -0.09170       -0.95850
H         -2.92720       -0.34710        2.09560
H         -4.34510       -0.26440        1.02660
H         -1.65470       -2.37740        2.08620
H         -2.21730       -3.68960        1.02490
H         -1.48080       -2.47500       -0.97050
H         -0.10220       -2.50940        0.14880
