22
gdb 12113	2.96992	1.85824	1.44413	0.0512	81.3	-0.24	0.0864	0.3265	990.8872	0.199805	-313.046998	-313.038445	-313.037501	-313.079351	34.398
C          0.02980        1.49470        0.25820
C          0.00170       -0.00900        0.03410
C          1.04610       -0.54860       -0.92140
C          1.20730       -0.75680        0.56510
C         -1.36830       -0.67790        0.04130
C         -1.39310       -2.18360        0.25200
C         -2.56560        0.06490        0.59730
C         -2.42690       -0.12960       -0.89330
H          1.04730        1.87650        0.13230
H         -0.60700        2.03340       -0.45230
H         -0.29590        1.75810        1.27010
H          0.79360       -1.41160       -1.52810
H          1.69650        0.16260       -1.41990
H          1.96460       -0.18000        1.08610
H          1.08320       -1.76110        0.95060
H         -1.05210       -2.45630        1.25630
H         -2.41240       -2.56430        0.13800
H         -0.76720       -2.71570       -0.47310
H         -3.31500       -0.51680        1.12440
H         -2.43570        1.06560        0.99020
H         -2.18350        0.73900       -1.49570
H         -3.08490       -0.83620       -1.38840
