16
gdb 10497	3.03671	1.31015	1.02122	1.8461	70.35	-0.2486	0.0279	0.2765	1177.9788	0.127772	-383.685823	-383.676654	-383.67571	-383.721452	31.294
C          0.02630        1.52160        0.10730
C          0.06080        0.06780        0.07620
C          0.07990       -1.13570        0.04250
C          0.15220       -2.57460        0.00440
C          1.41320       -3.18170       -0.58900
O          1.54240       -2.87800       -1.96120
C         -0.67870       -3.38400        0.91880
O         -1.04720       -3.25630       -0.44970
H          0.82290        1.94910       -0.51110
H         -0.92920        1.89930       -0.27270
H          0.15270        1.90250        1.12670
H          2.29780       -2.77040       -0.09300
H          1.39050       -4.26780       -0.41190
H          0.73400       -3.18100       -2.39070
H         -0.33020       -4.37020        1.22510
H         -1.32610       -2.87280        1.62840
