20
gdb 19149	3.53982	1.49317	1.21953	1.6268	74.54	-0.2589	0.0864	0.3453	1065.2534	0.176234	-348.968779	-348.960211	-348.959267	-349.002346	31.949
C         -0.32280        1.74250        0.11810
C         -0.38230        0.21450        0.18410
C          0.63490       -0.49210        1.08150
C          2.01750        0.07500        1.28140
C          1.02780        0.09000        2.42130
C          0.43700       -1.97980        1.04160
O          0.79830       -2.66740       -0.16510
C          1.50350       -2.98880        1.03240
H          0.62560        2.09930       -0.29450
H         -1.11940        2.11740       -0.53170
H         -0.46080        2.20600        1.10020
H         -1.38680       -0.08620        0.51350
H         -0.26480       -0.19290       -0.82770
H          2.86350       -0.59870        1.34530
H          2.25130        1.01920        0.80370
H          0.60370        1.04120        2.72250
H          1.19020       -0.60110        3.24200
H         -0.53230       -2.29980        1.43370
H          2.54910       -2.68930        1.05110
H          1.30440       -3.97810        1.44470
