22
gdb 6976	2.36674	2.20613	1.55898	0.1198	82.6	-0.2349	0.0295	0.2644	967.9154	0.199976	-313.094514	-313.08582	-313.084876	-313.126768	34.282
C         -0.73550        1.15830       -0.00870
C          0.15180       -0.08200       -0.10550
C          1.33470        0.04850       -1.09880
C          2.35440       -0.91050       -0.53410
C          2.05580       -1.26680        0.71290
C          0.79320       -0.59880        1.23180
C          1.18370        0.53960        2.19870
C         -0.13550       -1.58400        1.95900
H         -0.16950        2.04240        0.30230
H         -1.18760        1.38400       -0.98050
H         -1.55300        1.01570        0.70650
H         -0.46950       -0.90940       -0.47240
H          1.03810       -0.18730       -2.12760
H          1.73430        1.07400       -1.12540
H          3.23390       -1.22800       -1.08420
H          2.65420       -1.91890        1.34220
H          1.81440        1.28680        1.70740
H          0.29930        1.04740        2.59840
H          1.74790        0.14060        3.04880
H          0.32950       -1.96400        2.87580
H         -1.07680       -1.10060        2.24540
H         -0.37620       -2.44270        1.32390
