16
gdb 19495	3.36022	1.93055	1.78013	1.5777	69.75	-0.2251	0.0449	0.27	818.0226	0.13111	-346.55544	-346.548359	-346.547415	-346.586679	27.174
C          0.21070       -1.24780       -0.00850
C          0.15810       -0.04540        0.01930
C          0.06370        1.38170        0.04270
C          0.42330        2.22380        1.27760
C          1.29160        1.58270        2.34730
C          2.55290        1.11840        1.57580
O          2.54790        1.78450        0.30290
C          1.28390        2.30900        0.06110
H          0.26820       -2.30730       -0.04460
H         -0.77310        1.78220       -0.52470
H         -0.26360        3.01190        1.56200
H          1.53860        2.33420        3.10330
H          0.80570        0.74320        2.85200
H          3.48560        1.38210        2.08390
H          2.53480        0.03720        1.41480
H          1.30680        3.15250       -0.61960
