20
gdb 13144	3.6746	1.19612	1.00631	1.4675	71.61	-0.2546	0.0669	0.3215	1219.2769	0.176241	-386.112585	-386.103612	-386.102668	-386.146482	32.479
C          0.37300        1.35140        0.00000
O          0.17640       -0.04120        0.02390
C          0.72240       -0.65410        1.17180
C          0.44190       -2.14520        1.10200
C          1.28590       -2.89890        0.03380
C          2.28250       -3.32830        1.14690
C          1.19130       -2.98080        2.19140
O          1.54560       -2.39930        3.42380
H          1.44340        1.61450       -0.00520
H         -0.08720        1.73250       -0.91490
H         -0.09490        1.84620        0.86610
H          1.81010       -0.45430        1.21920
H          0.27940       -0.22870        2.08770
H         -0.64070       -2.28970        1.05230
H          0.74800       -3.74920       -0.39180
H          1.67660       -2.29100       -0.78400
H          2.67090       -4.34920        1.13690
H          3.13210       -2.63980        1.21870
H          0.60310       -3.86650        2.44850
H          2.20210       -1.71570        3.25640
