13
gdb 9163	6.80656	0.78305	0.72072	3.8154	69.53	-0.2724	-0.0809	0.1915	1481.6875	0.093173	-398.599231	-398.590111	-398.589167	-398.635085	28.857
C          0.10640        1.46150       -0.09510
N          0.25760        0.02120       -0.00440
C          0.23860       -0.64030        1.18400
O          0.09330       -0.11890        2.27420
C          0.40900       -2.08510        1.05180
C          0.55860       -3.28360        1.01000
C          0.70130       -4.72020        0.97180
O          1.70840       -5.29090        0.62590
H          1.01530        1.93160       -0.48580
H         -0.73530        1.72590       -0.74320
H         -0.08260        1.83600        0.91100
H          0.41980       -0.51430       -0.84210
H         -0.20520       -5.27190        1.29050
