13
gdb 4721	6.4987	1.34599	1.1228	5.4786	69.64	-0.2427	-0.0383	0.2044	995.4189	0.097292	-357.703933	-357.696843	-357.695898	-357.735467	25.388
C          0.01590        1.50540        0.02640
C          0.00990        0.01230       -0.02150
C         -0.13970       -0.81100       -1.11840
N         -0.07400       -2.09190       -0.64140
C          0.11070       -2.00290        0.71170
N          0.16470       -0.74500        1.10990
C          0.22270       -3.15720        1.52880
N          0.30900       -4.12460        2.15920
H          0.96050        1.87890        0.43450
H         -0.11980        1.93130       -0.97100
H         -0.78560        1.87830        0.67190
H         -0.28250       -0.60030       -2.16540
H         -0.14700       -2.94220       -1.17600
