21
gdb 6929	4.7481	0.93473	0.87519	1.9338	75.96	-0.2385	0.0771	0.3156	1391.1439	0.187016	-366.241601	-366.231783	-366.230839	-366.276288	35.527
C          0.04510        1.53380       -0.15530
C         -0.02680        0.03610        0.06650
C         -1.18810       -0.63650       -0.64130
N          1.27600       -0.66120        0.07100
C          0.47930       -0.60100        1.31680
C          1.08530        0.12640        2.49440
C          2.13240       -0.72490        3.20490
O          2.62350        0.01940        4.31020
H          0.94610        1.96230        0.28530
H          0.06310        1.75590       -1.22840
H         -0.82860        2.03620        0.27490
H         -1.11100       -0.50330       -1.72710
H         -1.21630       -1.71100       -0.43190
H         -2.14620       -0.20850       -0.32550
H          1.18690       -1.57750       -0.36210
H         -0.04060       -1.51870        1.59770
H          1.56110        1.05680        2.17420
H          0.29960        0.39250        3.21230
H          1.68000       -1.67520        3.53600
H          2.93560       -0.97230        2.49450
H          3.33190       -0.48500        4.72030
