15
gdb 4790	6.45564	1.30306	1.10156	3.6378	64.53	-0.1712	0.0591	0.2304	1037.3392	0.120237	-396.013551	-396.005634	-396.00469	-396.04575	29.007
C          0.03170        1.31060        0.25390
N         -0.03880       -0.06910       -0.19360
C         -1.22130       -0.77000       -0.06230
N         -1.30550       -2.08500        0.02860
C         -2.65200       -2.34970        0.06190
O         -3.10030       -3.62220        0.15700
C         -3.40100       -1.21210        0.00050
N         -2.44470       -0.18400       -0.06770
H          1.06190        1.65950        0.15920
H         -0.58120        1.95250       -0.39030
H         -0.29440        1.45690        1.29530
H          0.74580       -0.64520        0.07390
H         -2.31280       -4.17870        0.17280
H         -4.45760       -1.02000        0.02380
H         -2.64120        0.79380       -0.18430
