18
gdb 6111	2.82695	1.86805	1.49543	1.8086	69.28	-0.2448	0.0237	0.2685	935.032	0.153011	-381.127943	-381.119173	-381.118229	-381.16077	32.55
C          0.23320        1.36880       -0.26780
C         -0.07200       -0.08980        0.02120
C         -1.55290       -0.41390       -0.03330
O          0.68110       -0.96380       -0.91610
C          1.49290       -1.43410        0.08770
N          2.52340       -2.15110        0.04670
C          0.73330       -0.72580        1.20180
N          1.40280        0.14240        2.14400
H          1.31060        1.54880       -0.31640
H         -0.20250        1.66560       -1.22650
H         -0.18250        2.00340        0.51970
H         -1.97310       -0.15040       -1.00900
H         -1.72550       -1.48030        0.13790
H         -2.09040        0.15270        0.73420
H          2.75760       -2.41080       -0.91360
H          0.10650       -1.42840        1.75860
H          1.72190       -0.39650        2.94180
H          2.23580        0.54620        1.72720
