16
gdb 11224	4.46936	1.38626	1.19827	2.0882	73.32	-0.2409	0.0131	0.254	1030.4799	0.128927	-346.572754	-346.564707	-346.563762	-346.60537	29.367
C          0.04760        1.54060        0.04300
C          0.04210        0.04730        0.00980
C         -0.13290       -0.76760       -1.02530
C         -0.08730       -2.20980       -0.57140
O          0.23390       -2.13990        0.82350
C          0.23400       -0.78280        1.25370
C         -1.35350       -2.91860       -0.79960
C         -2.38680       -3.49690       -1.00490
H          1.00110        1.92490        0.42590
H         -0.11710        1.96540       -0.95010
H         -0.73460        1.92170        0.71130
H         -0.31600       -0.49030       -2.05510
H          0.71500       -2.77110       -1.07560
H          1.18670       -0.56570        1.76020
H         -0.57050       -0.60900        1.98760
H         -3.29980       -4.01060       -1.17940
