16
gdb 17540	4.11261	1.85054	1.65288	1.6681	64.33	-0.2267	0.0632	0.2899	824.4525	0.129847	-383.667372	-383.660476	-383.659532	-383.698178	27.391
O         -0.02750        1.40350        0.02080
C         -0.06960        0.01560        0.00350
C         -0.51770       -0.77340        1.18540
O         -1.51680       -0.01660        1.89490
C         -2.40180       -0.12450        0.75660
C         -3.83910       -0.47220        0.93600
C         -3.42450        0.91390        0.45070
C         -1.35610       -0.79620       -0.09260
H         -0.48150        1.67340        0.83080
H          0.75800       -0.40880       -0.55800
H          0.02460       -1.52880        1.74230
H         -4.29570       -1.15810        0.22980
H         -4.20260       -0.55540        1.95430
H         -3.52690        1.73170        1.15640
H         -3.59660        1.18380       -0.58550
H         -1.53190       -1.58040       -0.81720
