16
gdb 7251	4.79778	1.19082	0.97139	7.054	67.6	-0.2574	0.0099	0.2673	1159.7824	0.128878	-379.959471	-379.950158	-379.949214	-379.994622	31.03
C          0.03850        1.43390        0.09190
N          0.00040       -0.02140        0.06240
C          1.29260       -0.67490        0.14560
C         -1.21460       -0.64220       -0.03800
O         -2.26800       -0.04110       -0.10440
C         -1.19100       -2.18680       -0.06460
C         -2.53460       -2.74510       -0.17340
N         -3.57110       -3.24550       -0.25860
H          0.62830        1.81820       -0.74920
H         -0.98130        1.80710        0.02370
H          0.49780        1.78570        1.02370
H          1.80400       -0.39980        1.07720
H          1.20260       -1.75890        0.11920
H          1.93410       -0.36760       -0.69050
H         -0.59280       -2.54760       -0.90890
H         -0.72150       -2.57980        0.84420
