20
gdb 6026	2.62819	1.7629	1.44076	4.0795	75.29	-0.225	0.0372	0.2622	997.0512	0.174826	-345.185472	-345.175754	-345.17481	-345.219052	35.81
C          0.02550        1.48840        0.05910
N         -0.01900        0.03060        0.05660
C          0.82320       -0.52080        1.10880
C         -1.37810       -0.54250       -0.02780
C         -1.31240       -2.08050       -0.16350
C         -2.31780       -0.16180        1.14660
C         -1.98750       -0.03530       -1.28070
N         -2.49600        0.34250       -2.24710
H          1.05820        1.80860       -0.11020
H         -0.58570        1.88640       -0.75430
H         -0.31330        1.94490        1.00590
H          0.47740       -0.28980        2.13270
H          0.91710       -1.60380        1.01350
H          1.82560       -0.09570        1.00140
H         -1.04320       -2.54260        0.78890
H         -2.29000       -2.46790       -0.45890
H         -0.57850       -2.36340       -0.92130
H         -2.44730        0.91980        1.22090
H         -3.30450       -0.61140        1.00800
H         -1.90370       -0.53090        2.08900
