17
gdb 15533	3.44022	1.90471	1.25998	3.4154	73.88	-0.2063	0.0032	0.2095	951.0106	0.142954	-363.907723	-363.899854	-363.898909	-363.940245	28.497
C         -0.09990        1.53540       -0.01290
C         -0.03480        0.04370       -0.05120
C         -0.04730       -0.75680       -1.12270
C          0.08660       -2.20910       -0.73490
C         -0.07090       -2.15960        0.80480
N          0.05270       -0.72620        1.13790
C          0.20170       -0.28440        2.41810
O          0.29050        0.87080        2.78210
H          0.78760        1.96150        0.46080
H         -0.18540        1.91820       -1.03280
H         -0.95500        1.88240        0.57370
H         -0.09960       -0.40510       -2.14330
H         -0.67320       -2.85140       -1.19140
H          1.06170       -2.61800       -1.03210
H         -1.05790       -2.52620        1.10960
H          0.68580       -2.74310        1.33440
H          0.23820       -1.13650        3.12690
