14
gdb 3394	4.82608	2.35674	2.17684	2.4413	57.93	-0.2426	-0.0246	0.2179	658.3311	0.113219	-324.546164	-324.539845	-324.538901	-324.576233	23.629
C         -0.05220        1.56350        0.02100
C          0.09340        0.05860       -0.05600
C          0.58570       -0.71310       -1.24120
N          1.33890       -0.69340        0.10520
C          2.43940        0.11760       -0.52980
C          1.73400       -0.00100       -1.89420
O          2.06470        0.18310       -3.02990
H          0.66280        2.10700       -0.59850
H         -1.05530        1.84460       -0.31420
H          0.05910        1.90310        1.05640
H         -0.71110       -0.46500        0.45910
H          0.06790       -1.58450       -1.62720
H          2.61410        1.10320       -0.09290
H          3.37250       -0.45250       -0.52590
