15
gdb 14617	16.03178	0.61022	0.5944	1.3602	63.62	-0.27	-0.0403	0.2297	1713.9566	0.115864	-399.806998	-399.797889	-399.796945	-399.84261	29.26
O         -0.25110        0.21640        0.54110
C          0.03750        1.11580       -0.20020
C          1.35660        1.86770       -0.13090
O          1.35490        2.84880       -1.13920
C          2.53470        3.61640       -1.18160
C          2.36500        4.62630       -2.32280
C          3.53500        5.48680       -2.46720
N          4.46910        6.15910       -2.56660
H         -0.63980        1.47630       -1.00570
H          1.46230        2.30980        0.87370
H          2.18310        1.14890       -0.25710
H          2.69910        4.14280       -0.22890
H          3.41430        2.98020       -1.36440
H          2.19100        4.08900       -3.26090
H          1.48080        5.24370       -2.13320
