19
gdb 5950	4.07866	1.14136	1.11504	2.6831	70.13	-0.2555	0.0294	0.2848	1151.6295	0.162185	-402.196698	-402.186743	-402.185799	-402.231337	35.225
C         -0.01870        1.58830        0.06810
C          0.04430        0.05810        0.07890
C          0.75550       -0.48700        1.32090
C         -1.37140       -0.53190       -0.02390
O         -2.10860       -0.11990        1.11480
O          0.65340       -0.44840       -1.13630
C          1.93040       -0.14000       -1.41540
N          2.46360       -0.58070       -2.47400
H          0.96760        2.04130        0.20200
H         -0.43750        1.94190       -0.87860
H         -0.66380        1.92800        0.88150
H          0.15530       -0.26510        2.20620
H          0.87220       -1.57190        1.24300
H          1.74430       -0.04050        1.45740
H         -1.82840       -0.17660       -0.95830
H         -1.28770       -1.62630       -0.08360
H         -2.99370       -0.48840        1.05060
H          2.42070        0.49490       -0.66910
H          3.42670       -0.25570       -2.53270
