15
gdb 12683	2.79084	2.36827	1.54167	2.6761	56.96	-0.259	0.0159	0.275	816.9323	0.120634	-436.976757	-436.969625	-436.96868	-437.007976	27.261
O         -0.02060        1.42980        0.21670
C          0.06070        0.03090        0.06980
C          0.59660       -0.57820        1.38580
N         -0.61350       -0.79990        2.17350
C         -1.75900       -0.67020        1.46190
O         -2.90590       -0.61020        1.85990
C         -1.35810       -0.56120       -0.01470
O         -2.25550        0.27250       -0.70550
H         -0.82820        1.69090       -0.25060
H          0.69390       -0.24460       -0.78360
H          1.13850       -1.51480        1.20450
H          1.26940        0.12990        1.87610
H         -0.62390       -0.83060        3.18050
H         -1.33070       -1.56920       -0.45670
H         -3.05780        0.28630       -0.15810
