16
gdb 15702	3.63102	1.69564	1.22003	2.0678	60.43	-0.2555	-0.0404	0.2152	952.1571	0.130794	-420.890068	-420.88258	-420.881636	-420.922134	27.483
O         -0.01180        1.47340       -0.13160
C          0.04790        0.06650       -0.13370
C         -1.34480       -0.56310        0.01630
C         -1.43660       -2.09350        0.01540
O         -2.60020       -2.41150        0.78590
C         -2.68460       -1.48820        1.85060
C         -1.97290       -0.22630        1.36710
O         -1.87840        0.81970        1.96440
H         -0.48260        1.72480        0.67560
H          0.49310       -0.23380       -1.08850
H          0.70390       -0.31920        0.66560
H         -2.00180       -0.14640       -0.75870
H         -1.57160       -2.53060       -0.97540
H         -0.53670       -2.53750        0.47280
H         -3.73370       -1.29900        2.09710
H         -2.17860       -1.84910        2.76250
