15
gdb 14288	3.74621	1.87648	1.8281	3.2222	61.36	-0.2462	0.0281	0.2743	787.5329	0.119831	-399.793451	-399.78657	-399.785626	-399.824576	26.175
O         -0.40040        1.50050       -0.30900
C         -0.13090        0.15250       -0.09030
C         -1.31180       -0.76930        0.13190
C         -2.66510       -0.24460       -0.31040
C         -2.51110        0.01090       -1.80090
N         -3.38110        0.51620       -2.55830
O         -1.26170       -0.39560       -2.22210
C         -0.49890       -0.87170       -1.13610
H          0.03880        1.77210       -1.12230
H          0.76280       -0.05600        0.49780
H         -1.25630       -1.51960        0.91030
H         -3.45290       -0.98390       -0.14170
H         -2.96000        0.68130        0.18730
H         -3.03180        0.58650       -3.51510
H          0.14940       -1.69630       -1.40600
