12
gdb 402	6.03973	3.14206	2.43199	1.7508	52.23	-0.2616	0.0263	0.2879	548.2216	0.094019	-269.176124	-269.169791	-269.168847	-269.205558	22.957
C         -0.02080        1.50710        0.01650
C         -0.01850       -0.00530       -0.05940
C          0.76680       -0.70310       -1.09940
O          1.24260       -0.63440        0.24050
C         -1.18110       -0.66310        0.49350
C         -2.16490       -1.17240        0.95960
H          0.89960        1.90500       -0.41740
H         -0.87890        1.91740       -0.52410
H         -0.08700        1.83420        1.05810
H          0.45100       -1.68830       -1.43700
H          1.31720       -0.10780       -1.82760
H         -3.02780       -1.63520        1.37110
