14
gdb 11103	6.06651	1.18212	1.12303	4.1304	59.57	-0.2517	-0.0461	0.2056	1028.0738	0.104503	-419.660228	-419.652416	-419.651472	-419.693806	26.177
O         -0.44670        0.22720       -0.08780
C          0.02390        1.30630       -0.32280
C          1.37890        1.78430        0.15380
C          1.31910        2.68960        1.41870
C          2.15460        1.53830        2.05080
O          2.14650        0.78900        0.83400
C          3.53310        1.96230        2.51070
O          4.54740        1.79260        1.89130
H         -0.52880        2.07930       -0.90890
H          1.92320        2.22410       -0.69400
H          1.82880        3.64940        1.32880
H          0.32790        2.83600        1.84880
H          1.64950        1.00830        2.87080
H          3.52090        2.48700        3.49610
