18
gdb 8070	3.55823	1.68003	1.42419	1.7307	68.57	-0.251	0.0849	0.3359	944.4341	0.153323	-384.879764	-384.871963	-384.871019	-384.911817	29.669
C          0.12920        1.29060        0.16130
O         -0.32390        0.02290       -0.26320
C          0.48060       -0.55660       -1.25010
C          1.75890       -1.36770       -0.85830
C          0.82220       -2.42580       -0.20720
C          0.16150       -2.03900       -1.57630
O         -0.97910       -2.54910       -2.16080
C          1.56780       -2.12020       -2.20920
H          1.11510        1.23320        0.64510
H          0.19820        1.99700       -0.68020
H         -0.59730        1.67160        0.88300
H          0.59370        0.11860       -2.11150
H          2.69330       -0.98240       -0.45840
H          1.21660       -3.44240       -0.13770
H          0.29450       -2.12180        0.69640
H         -1.73310       -2.27070       -1.62850
H          1.72990       -1.54930       -3.12780
H          2.01150       -3.11580       -2.26520
