19
gdb 2043	4.11966	2.81542	2.13361	0.1122	71.5	-0.2809	0.0939	0.3748	710.3744	0.172378	-273.732431	-273.725484	-273.72454	-273.76293	27.483
C         -0.13270        1.53230        0.04180
C         -0.01060        0.00350        0.00530
C         -1.42680       -0.54760       -0.20500
C          1.18050       -0.64140       -0.80530
C          2.15580       -0.12240        0.29340
C          0.92910       -0.70590        1.05660
C          1.04030       -1.91540        0.08060
H          0.80790        2.06310        0.18690
H         -0.57310        1.89640       -0.89380
H         -0.80820        1.83600        0.85010
H         -1.84850       -0.15390       -1.13710
H         -1.49260       -1.63440       -0.25150
H         -2.08390       -0.21420        0.60670
H          1.33090       -0.60660       -1.88700
H          3.08620       -0.68600        0.39950
H          2.35110        0.94630        0.35680
H          0.78730       -0.74620        2.13920
H          0.17190       -2.55630       -0.05880
H          1.94590       -2.51870        0.18200
