17
gdb 15883	2.86159	1.86498	1.25328	3.0933	65.51	-0.2618	0.0189	0.2807	973.6608	0.142287	-401.000133	-400.992065	-400.991121	-401.032671	29.678
C         -0.31230        1.51360       -0.13900
C          0.07950        0.05650       -0.03180
O          1.37080       -0.21320       -0.70380
C          1.91880       -0.68300        0.46110
N          3.08790       -1.04860        0.74810
C          0.67020       -0.51140        1.29010
C          0.89640        0.34900        2.53740
O          1.75550       -0.32580        3.42990
H          0.46640        2.17150        0.25400
H         -0.48840        1.77870       -1.18550
H         -1.23750        1.69570        0.41770
H         -0.68620       -0.58810       -0.47290
H          3.72180       -0.98660       -0.04960
H          0.22550       -1.46340        1.59040
H          1.30100        1.33240        2.25240
H         -0.04660        0.52140        3.06710
H          2.54330       -0.58010        2.92580
