14
gdb 19004	5.47716	1.92986	1.70048	2.18	60.92	-0.2314	0.0046	0.236	745.3909	0.110226	-378.678758	-378.673195	-378.672251	-378.708221	22.68
O         -0.06090       -0.02680       -0.10730
C         -0.01900        1.16900        0.03730
N         -1.08590        2.05580        0.17330
C         -0.48080        3.37300        0.10030
C          0.77020        3.35520       -0.84140
N          1.42800        4.35440        0.07150
C          0.78920        3.34210        0.98930
C          1.16940        2.12850        0.06750
H         -1.97990        1.84080       -0.24130
H         -1.15240        4.22690        0.12430
H          0.81780        3.42820       -1.92960
H          2.44010        4.20300        0.06030
H          0.85090        3.40050        2.07720
H          2.17770        1.71980        0.05230
