14
gdb 15310	4.2635	1.16753	0.99511	3.5951	63.61	-0.2654	-0.0394	0.2261	1112.3994	0.105512	-378.701251	-378.693285	-378.69234	-378.734748	27.235
O         -0.49850        0.57560        0.77550
C         -0.06830        1.16930       -0.17630
C          1.36730        1.66430       -0.28480
N          1.41930        2.82710       -1.16330
C          1.40900        4.14150       -0.54680
C          2.65200        3.62120       -1.20850
C          3.78680        3.27060       -0.38840
N          4.70680        2.97200        0.24580
H         -0.68970        1.38810       -1.07230
H          1.77140        1.82770        0.72420
H          1.95370        0.85820       -0.74690
H          0.82570        4.90530       -1.05190
H          1.42350        4.20230        0.53970
H          2.92000        3.98130       -2.19780
