17
gdb 6169	3.65877	1.4189	1.34993	2.5208	65.13	-0.2455	0.0171	0.2626	997.455	0.140119	-401.027869	-401.019052	-401.018108	-401.060869	32.401
C          1.04360        0.93840       -0.53530
C          0.04130       -0.03950        0.03470
C         -1.15770       -0.32210       -0.84490
O          0.59390       -1.21070        0.67160
C         -0.09500       -0.26000        1.49310
C          0.70120        0.48430        2.54010
N          2.02380        0.16560        2.56520
O          0.16710        1.28710        3.28030
H          1.87710        1.10900        0.14670
H          1.43870        0.55570       -1.48260
H          0.55900        1.89860       -0.73950
H         -0.83260       -0.68660       -1.82530
H         -1.80330       -1.07880       -0.39360
H         -1.74260        0.58990       -1.00250
H         -1.06750       -0.57790        1.86720
H          2.35370       -0.60520        2.00780
H          2.59870        0.54510        3.29900
