14
gdb 7626	4.88461	1.35623	1.20253	5.5414	58.58	-0.2511	0.0098	0.2609	969.3008	0.107015	-415.911828	-415.903843	-415.902899	-415.945262	28.165
N         -0.01460        1.33600       -0.01470
C          0.07010       -0.02360        0.00490
O          1.12310       -0.62830        0.02380
C         -1.27990       -0.74150        0.03020
C         -2.03000       -0.84570       -1.33820
C         -1.70470       -2.35890       -1.24420
O         -1.83850       -3.31230       -1.95650
N         -1.16450       -2.19650        0.01950
H          0.83730        1.86870       -0.08120
H         -0.89200        1.81800       -0.10610
H         -1.89070       -0.35530        0.85490
H         -3.09150       -0.59410       -1.32190
H         -1.54090       -0.34670       -2.17680
H         -0.42980       -2.73780        0.45490
