15
gdb 4787	6.81667	1.25431	1.07644	2.8398	65.22	-0.172	0.0477	0.2197	1058.0866	0.118707	-399.809907	-399.801819	-399.800875	-399.842576	29.171
C         -0.11520        1.42930        0.09090
N         -0.03630        0.01120       -0.24120
C         -1.15810       -0.77790       -0.08620
C         -1.32180       -2.12020        0.12220
C         -2.74310       -2.33350        0.09130
O         -3.40380       -3.51210        0.25290
C         -3.33410       -1.13100       -0.12080
O         -2.34650       -0.16160       -0.22950
H          0.84450        1.89430       -0.14520
H         -0.88470        1.90330       -0.52110
H         -0.35320        1.62160        1.14770
H          0.79530       -0.44330        0.10540
H         -0.54720       -2.85570        0.27450
H         -2.75550       -4.21270        0.36360
H         -4.34980       -0.79230       -0.20350
