15
gdb 149	11.92252	3.07744	2.77702	0.095	52.9	-0.2723	0.0986	0.3709	514.3053	0.137725	-196.40532	-196.399392	-196.398448	-196.434166	21.364
C          0.15230        1.47920        0.10850
C         -0.16480       -0.00180       -0.12770
C          0.58260       -0.58660       -1.30810
C          1.98830       -1.10790       -1.13890
C          0.84980       -2.06680       -1.39510
H          1.22070        1.62690        0.29760
H         -0.11440        2.08360       -0.76570
H         -0.40080        1.87420        0.96650
H          0.08190       -0.57920        0.77300
H         -1.24520       -0.12590       -0.28070
H          0.37860       -0.08880       -2.25390
H          2.70840       -0.93810       -1.93170
H          2.41640       -1.08870       -0.14140
H          0.51800       -2.68950       -0.57030
H          0.79090       -2.55000       -2.36430
