13
gdb 8753	4.38355	1.44207	1.09249	3.1076	64.72	-0.2817	-0.0798	0.2019	997.5008	0.095271	-394.813266	-394.805128	-394.804184	-394.846225	27.604
C         -0.04500        1.49060        0.02470
N         -0.00470        0.02830        0.00360
C         -0.09500       -0.64790        1.22620
N         -0.20770        0.01050        2.30450
C          0.11660       -0.72540       -1.14300
O          0.15210       -1.93550       -1.18470
C          0.20720        0.04620       -2.39630
N          0.28430        0.57010       -3.42350
H          0.03450        1.87310       -0.99150
H         -0.98140        1.82500        0.47600
H          0.77910        1.87140        0.63130
H         -0.05570       -1.72970        1.10480
H         -0.26130       -0.62340        3.10000
