18
gdb 6910	4.79506	1.11754	1.04307	4.8364	73.53	-0.2483	0.0272	0.2755	1170.9432	0.152057	-343.97241	-343.963538	-343.962594	-344.005944	32.155
C          0.26660        0.94030       -1.84720
C          0.27700       -0.33140       -1.01810
C         -1.07910       -0.71750       -0.46080
C          1.26620       -1.40370       -1.34160
N          1.39010       -0.63700       -0.10080
C          2.51240        0.28350        0.01430
C          3.66610       -0.39620        0.61760
N          4.58630       -0.92080        1.07770
H          1.23340        1.16450       -2.30320
H         -0.45970        0.84250       -2.66050
H         -0.03710        1.80170       -1.24090
H         -1.78760       -0.91900       -1.27190
H         -0.99800       -1.60920        0.16440
H         -1.49250        0.09100        0.15260
H          1.01430       -2.45390       -1.22160
H          1.98210       -1.19970       -2.13730
H          2.85050        0.72180       -0.93810
H          2.22490        1.11590        0.66720
