17
gdb 11260	5.41564	1.22097	1.03507	4.627	77.08	-0.2589	-0.039	0.2199	1120.5516	0.143383	-326.768661	-326.760988	-326.760044	-326.800755	28.534
C         -0.64700        1.33620       -0.08340
C          0.16780        0.05010        0.03640
C          1.11710       -0.22510       -1.16230
C          2.28330       -0.93920       -0.53670
C          2.27150       -0.82850        0.79900
C          1.08650       -0.01220        1.28630
C          3.25660       -1.35260        1.67930
N          4.04000       -1.76870        2.42490
H          0.00890        2.21160       -0.15410
H         -1.28140        1.32150       -0.97580
H         -1.29880        1.47660        0.78500
H         -0.52330       -0.79880        0.10140
H          0.63790       -0.80600       -1.95790
H          1.45770        0.71160       -1.62960
H          3.05420       -1.44570       -1.10530
H          1.42100        0.98780        1.59500
H          0.59250       -0.45950        2.15390
