16
gdb 11422	4.26773	1.45048	1.14043	2.9162	61.49	-0.2722	0.0042	0.2764	1034.0803	0.130212	-420.924611	-420.916892	-420.915947	-420.957205	27.551
C         -0.08750        1.51850        0.04340
C         -0.04340       -0.01040       -0.00670
C          0.65690       -0.53870       -1.24030
O          0.71130       -1.94970       -1.21400
C          0.61680       -2.39210       -2.55210
C         -0.07170       -1.24470       -3.28270
O         -0.53870       -1.21890       -4.38090
O         -0.06610       -0.18600       -2.43130
H          0.92080        1.94680        0.04290
H         -0.62540        1.92280       -0.81820
H         -0.59270        1.85900        0.95100
H          0.49070       -0.41350        0.86110
H         -1.05280       -0.43500        0.00870
H          1.67040       -0.11480       -1.34220
H          1.60210       -2.58000       -3.00610
H          0.02500       -3.30850       -2.60360
