14
gdb 17741	6.57005	1.68575	1.62768	1.8171	60.77	-0.2368	0.0799	0.3167	783.2097	0.106762	-382.407475	-382.401732	-382.400787	-382.437159	23.128
C          0.05200        1.57550        0.00760
O          1.22270        0.72460       -0.00760
C         -0.05170        0.12390        0.00330
C         -0.54950       -0.93170        0.97990
C         -1.72620       -1.30200        0.01530
O         -1.43500       -2.72950        0.00700
C         -0.13170       -2.08090       -0.00400
C         -0.56960       -0.92440       -0.97060
H         -0.10010        2.13340        0.93060
H         -0.11910        2.14020       -0.90790
H         -0.55200       -0.96280        2.06750
H         -2.76380       -0.97280        0.02720
H          0.76720       -2.69410       -0.01560
H         -0.59450       -0.94750       -2.05810
