17
gdb 19055	3.50673	2.27299	2.10369	2.0862	66.01	-0.231	0.0662	0.2972	739.805	0.145056	-363.825244	-363.818973	-363.818029	-363.855283	25.597
O         -0.02970        1.46640       -0.00580
C          0.02150        0.04270        0.02980
C          0.65900       -0.53980        1.31960
C         -0.55350       -0.90460        2.16620
C         -1.48130        0.30640        2.45680
C         -2.26900       -0.14640        1.23750
C         -1.39600       -0.50310        0.09030
N         -1.57530       -1.49120        1.18180
H          0.86530        1.79020       -0.14870
H          0.53460       -0.33210       -0.86630
H          1.23600       -1.44060        1.08340
H          1.32560        0.18100        1.80380
H         -0.35010       -1.57540        3.00050
H         -2.05400        0.16460        3.37600
H         -1.04500        1.30740        2.44010
H         -3.34430       -0.06030        1.11200
H         -1.89250       -0.77060       -0.83660
