16
gdb 1243	6.60603	1.25987	1.1183	4.7243	62.39	-0.2789	0.0134	0.2923	1042.7896	0.134527	-325.784384	-325.775982	-325.775038	-325.817748	28.771
C         -0.13280        1.53550        0.06900
C         -0.01370        0.01950       -0.01650
C          0.77180       -0.57080        1.15640
O         -1.35750       -0.47610       -0.06190
C         -1.47180       -1.81270       -0.47470
C         -2.88720       -2.11990       -0.70930
N         -3.99240       -2.39320       -0.90050
H          0.85830        1.99790        0.06080
H         -0.70800        1.92180       -0.77590
H         -0.64280        1.82440        0.99300
H          0.48730       -0.25300       -0.96090
H          1.77940       -0.14490        1.18670
H          0.26980       -0.34070        2.10130
H          0.87930       -1.65670        1.07790
H         -0.91730       -1.99760       -1.41000
H         -1.08870       -2.52340        0.27370
