20
gdb 12782	3.59906	1.51229	1.29527	1.7134	75.05	-0.2277	0.0833	0.311	1051.094	0.175944	-348.972961	-348.964498	-348.963554	-349.005614	31.961
C          0.16120        1.53590        0.10950
C         -0.18310        0.05670       -0.09730
C          0.60480       -0.56260       -1.23710
O          2.05360       -0.52590       -1.04400
C          2.13830       -1.91740       -1.35900
C          1.41630       -2.73500       -0.33360
C          0.63970       -2.08060       -1.46500
C         -0.23660       -2.82810       -2.42640
H          1.22730        1.65220        0.32330
H         -0.06710        2.12540       -0.78540
H         -0.40480        1.96090        0.94360
H          0.00620       -0.50240        0.82550
H         -1.25170       -0.05640       -0.32410
H          0.36880       -0.04550       -2.17960
H          2.96400       -2.25040       -1.97790
H          1.51660       -3.81170       -0.43810
H          1.35830       -2.37930        0.69100
H         -1.24790       -2.96510       -2.02430
H         -0.32640       -2.29650       -3.38070
H          0.16690       -3.82390       -2.63650
