15
gdb 5240	7.41835	1.12837	0.99163	2.9272	63.57	-0.2366	0.0056	0.2422	1137.1744	0.119125	-399.812752	-399.805102	-399.804158	-399.84613	26.027
C          0.35460        1.43090        0.04160
O          0.56190        0.03930       -0.03860
C          0.19780       -0.63280        1.14040
C          0.46040       -2.08390        0.93460
C          0.94300       -2.83200       -0.08500
N          0.96610       -4.17070        0.30140
C          0.50650       -4.15870        1.50620
O          0.17280       -2.92820        1.97280
H          0.95230        1.88560        0.84680
H          0.66320        1.85900       -0.91440
H         -0.70450        1.67510        0.21770
H          0.77370       -0.25940        2.00640
H         -0.86810       -0.46770        1.38050
H          1.27170       -2.50760       -1.05760
H          0.35530       -4.98680        2.18030
