15
gdb 21263	3.51712	1.96853	1.28267	4.8582	63.83	-0.2296	0.0153	0.2449	917.6442	0.11937	-395.967062	-395.95923	-395.958285	-395.999743	27.005
C         -0.32680        0.63010        0.76810
O          0.15420        0.93500       -0.53760
C          0.61990       -0.11740       -1.22510
C          0.75800       -1.46790       -0.98490
N          1.31150       -2.03080       -2.09690
N          1.51920       -1.11740       -2.99470
N          1.09890        0.07010       -2.47520
C          1.19260        1.29900       -3.23140
H          0.47270        0.20830        1.38830
H         -0.66820        1.57230        1.19710
H         -1.16120       -0.07910        0.71930
H          0.50330       -2.04720       -0.11410
H          0.20240        1.73850       -3.37990
H          1.82810        2.02370       -2.71500
H          1.63160        1.04600       -4.19620
