21
gdb 3099	3.46991	1.89212	1.55217	0.0542	74.57	-0.2567	0.0813	0.338	931.1995	0.193921	-274.98231	-274.973411	-274.972467	-275.015306	32.396
C         -2.03950        0.47720        1.80320
C         -1.18060       -0.48930        0.97760
C          0.09970       -0.87930        1.69160
C          0.19180       -2.04430        2.66190
C         -0.98230       -2.94020        2.99920
C          0.91810       -2.10410        1.33150
C          0.53150       -3.05800        0.21970
H         -1.48440        1.39130        2.04170
H         -2.94460        0.76930        1.26100
H         -2.34550        0.02190        2.75070
H         -1.77450       -1.37350        0.72620
H         -0.92650       -0.01880        0.01820
H          0.68950       -0.00920        1.97580
H          0.83670       -1.86700        3.51990
H         -1.64520       -3.11390        2.14850
H         -0.63650       -3.92090        3.34580
H         -1.58910       -2.50480        3.80130
H          1.99460       -1.96190        1.39910
H         -0.54790       -3.20620        0.14120
H          0.87980       -2.68650       -0.75070
H          0.98540       -4.04320        0.37620
