17
gdb 16346	3.00971	1.85591	1.42266	1.1611	63.97	-0.2414	0.0486	0.2899	913.1026	0.141961	-400.939246	-400.931249	-400.930305	-400.971757	29.722
O          0.12280        1.39340        0.05450
C          0.01460       -0.01230       -0.16120
C         -1.41330       -0.45440       -0.04100
C         -2.02320       -0.97720        1.20210
N         -1.86130       -1.90620        0.06770
C         -3.00630       -1.57680       -0.86140
C         -2.50510       -0.13170       -1.06520
O         -3.44890        0.86740       -0.75670
H         -0.15960        1.56630        0.95910
H          0.38690       -0.18090       -1.17750
H          0.65330       -0.58870        0.52420
H         -1.35400       -1.20090        2.02840
H         -3.02340       -0.66170        1.48930
H         -2.96500       -2.20080       -1.75530
H         -3.99130       -1.66480       -0.39400
H         -2.07550        0.02000       -2.06460
H         -2.99900        1.71830       -0.80490
