16
gdb 13674	3.96885	1.26743	1.16204	2.4505	65.9	-0.2382	0.0214	0.2596	1060.4756	0.127632	-383.661557	-383.653001	-383.652057	-383.695376	31.04
O          0.09250        1.21420       -0.46330
C         -0.15300        0.07730        0.30280
C         -1.29030        0.06220        1.30190
C         -1.38300       -0.73050        0.01170
O         -2.13140       -0.21860       -1.05520
C         -3.50950       -0.56770       -1.05650
C         -4.32600        0.15400       -0.07910
C         -5.02450        0.74770        0.69780
H         -0.62620        1.27290       -1.10590
H          0.76220       -0.45050        0.55410
H         -1.17480       -0.48230        2.23310
H         -1.89010        0.96230        1.35940
H         -1.34790       -1.81920        0.04560
H         -3.86560       -0.34290       -2.06740
H         -3.62180       -1.65140       -0.90340
H         -5.63690        1.26940        1.39140
