18
gdb 9621	4.44163	1.1082	1.05939	3.1474	70.27	-0.245	-0.0173	0.2277	1152.696	0.151405	-384.935471	-384.926417	-384.925472	-384.969111	32.502
C         -0.08660        1.61380       -0.02350
C         -0.03980        0.09650        0.00900
C         -1.30450       -0.56570       -0.50070
O         -1.47050       -0.20770       -1.86580
C          1.24840       -0.61380       -0.24170
C          0.64350       -0.65200        1.15990
C          1.31880        0.06600        2.26230
O          1.30160       -0.29190        3.41540
H          0.87730        2.06640        0.21910
H         -0.37060        1.93890       -1.02770
H         -0.83010        2.00350        0.68120
H         -1.22490       -1.65780       -0.38460
H         -2.16170       -0.22950        0.10390
H         -2.35460       -0.46750       -2.14020
H          1.24350       -1.54130       -0.80290
H          2.14230       -0.01240       -0.37520
H          0.18010       -1.57980        1.48020
H          1.87870        0.97940        1.95810
