16
gdb 19297	3.55892	1.88917	1.51038	2.2741	60.35	-0.2381	0.0755	0.3136	863.059	0.129352	-420.814877	-420.807282	-420.806338	-420.846725	28.083
C         -0.03770        1.34760        0.21280
O         -0.06130        0.02540       -0.29830
C         -1.29290       -0.60480       -0.13380
C         -1.34940       -2.03150       -0.66590
O         -0.44930       -2.82470        0.12130
C         -1.75730       -2.56710        0.64920
C         -1.63970       -1.18470        1.31410
O         -0.64770       -1.05210        2.28790
H          0.95810        1.74880        0.01140
H         -0.78410        1.98280       -0.28900
H         -0.22240        1.36330        1.29340
H         -2.12340        0.00670       -0.52030
H         -1.56870       -2.38400       -1.66640
H         -2.37370       -3.42310        0.89740
H         -2.57330       -0.79470        1.72460
H          0.15190       -1.42670        1.89390
