18
gdb 16534	2.86954	2.24514	1.75616	1.8807	66.32	-0.247	0.0491	0.2962	825.3321	0.154934	-384.905694	-384.898302	-384.897358	-384.937516	28.871
O          0.34890        1.13520       -0.56100
C          0.01950       -0.16640       -0.15200
C          0.21930       -0.43120        1.38330
O          0.63420        0.71190        2.11680
C         -1.28060       -0.76650        1.53460
C         -2.20520        0.45000        1.81590
C         -2.42680        0.65020        0.28530
C         -1.48990       -0.54450       -0.01330
H          0.41170        1.65420        0.25400
H          0.56780       -0.86940       -0.78850
H          0.87330       -1.28450        1.59600
H          1.59630        0.72710        2.13410
H         -1.51410       -1.69490        2.05690
H         -3.11390        0.17380        2.35520
H         -1.72890        1.27440        2.34950
H         -3.45880        0.48270       -0.03040
H         -2.08730        1.59980       -0.13450
H         -1.85300       -1.31840       -0.69040
