14
gdb 21807	6.47013	1.20256	1.11517	2.2026	64.33	-0.2478	-0.0391	0.2087	1027.9909	0.107825	-378.743679	-378.736488	-378.735543	-378.776951	24.866
O         -0.26120        0.49070        0.85400
C          0.01400        1.16170       -0.10280
C          1.41000        1.73870       -0.34210
N          1.40030        2.84950       -1.26270
C          1.30010        4.17400       -0.97730
C          1.22480        4.83630       -2.18400
C          1.27690        3.81100       -3.15010
N          1.37860        2.60750       -2.59110
H         -0.72170        1.40380       -0.90010
H          1.84610        2.03980        0.61330
H          2.03430        0.94710       -0.76970
H          1.30030        4.53030        0.04090
H          1.15240        5.90010       -2.34040
H          1.25210        3.89850       -4.22630
