16
gdb 11348	4.26137	1.34824	1.04395	5.3421	69.34	-0.2302	-0.0354	0.1949	1081.2063	0.13028	-383.775948	-383.768057	-383.767113	-383.808681	28.322
O          0.02070        1.41220        0.00710
C         -0.02150        0.00140        0.00240
C         -1.43630       -0.47040        0.01210
C         -2.53790        0.29340        0.02300
C         -3.75440       -0.54360        0.02950
O         -4.90460       -0.16980        0.04080
C         -3.29080       -2.01270        0.02290
C         -1.75200       -1.95240        0.01040
H          0.94140        1.68870       -0.00100
H          0.48270       -0.42200       -0.88520
H          0.49700       -0.42840        0.87860
H         -2.56200        1.37390        0.02650
H         -3.69210       -2.52260        0.90320
H         -3.70650       -2.51910       -0.85270
H         -1.31770       -2.44150       -0.87050
H         -1.30330       -2.44650        0.88130
