10
gdb 2739	4.59359	2.35971	1.72093	3.6887	48.73	-0.2904	-0.0656	0.2248	672.0782	0.065691	-359.304956	-359.298799	-359.297855	-359.335457	20.939
O         -0.07070       -0.00980       -0.25470
C         -0.03580        1.15700       -0.05490
C         -1.01920        2.27600        0.28960
O          0.06290        3.23540        0.25800
C          1.07550        2.26240       -0.05670
C          2.11280        2.13790        0.96070
N          2.92540        2.01760        1.77340
H         -1.78800        2.47430       -0.46610
H         -1.48400        2.19290        1.27940
H          1.52890        2.43140       -1.04170
