14
gdb 20328	6.27661	1.37115	1.15967	2.0681	68.78	-0.2416	0.019	0.2606	979.7917	0.108232	-341.563058	-341.555971	-341.555026	-341.595203	25.789
C         -0.34140       -0.87930       -0.88480
C         -0.07090        0.08380       -0.22070
C          0.22370        1.26330        0.58270
N          1.51170        1.86480        0.26210
C          2.14080        1.93640       -0.93740
C          3.26840        2.70730       -0.74520
C          3.22320        3.06230        0.61810
N          2.15430        2.55410        1.22700
H         -0.57550       -1.73890       -1.46330
H         -0.57450        2.00680        0.45530
H          0.25890        1.01170        1.64660
H          1.74850        1.43040       -1.80430
H          4.01580        2.96150       -1.47900
H          3.92460        3.65830        1.18350
