20
gdb 18239	3.9555	1.50644	1.27202	0.2259	80.85	-0.2168	0.0296	0.2464	1047.7536	0.17843	-311.877202	-311.869478	-311.868534	-311.90931	30.029
C         -0.22690        1.52210       -0.05020
C          0.10330        0.02000        0.01290
C          0.79670       -0.48860       -1.21750
C          2.03630       -0.98770       -1.29680
C          2.42580       -1.38060       -2.70600
C          1.14260       -1.15010       -3.50420
C         -0.08650       -1.92910       -3.11490
C          0.12590       -0.53370       -2.55790
H          0.68430        2.11660       -0.16920
H         -0.88780        1.75270       -0.89170
H         -0.72980        1.84830        0.86550
H          0.73110       -0.17640        0.88920
H         -0.83060       -0.53940        0.16300
H          2.69950       -1.12690       -0.44930
H          3.24830       -0.75660       -3.08280
H          2.77740       -2.41920       -2.76860
H          1.21900       -0.81200       -4.53090
H         -0.84850       -2.05610       -3.87730
H          0.01470       -2.76640       -2.43090
H         -0.54870        0.25900       -2.86320
