16
gdb 18972	4.46154	2.24887	1.79746	2.0569	68.44	-0.2324	0.0075	0.2399	746.2756	0.132936	-346.546134	-346.540524	-346.53958	-346.57549	23.652
C         -0.02350        1.58060       -0.02480
C          1.37440        2.13580        0.02410
C          2.40720        1.29810        0.09970
C          2.15260       -0.17930        0.13440
C          1.03680       -0.74690       -0.79370
O          0.85990       -1.88490        0.12690
C          0.95210       -0.69060        0.98650
C         -0.01930        0.05470        0.02370
H         -0.62140        1.97680        0.80880
H         -0.53850        1.92160       -0.93450
H          1.50790        3.21310       -0.00360
H          3.43210        1.65380        0.13720
H          3.03840       -0.81170        0.19660
H          1.07710       -0.95710       -1.86340
H          0.89020       -0.83270        2.06630
H         -1.01520       -0.39200       -0.00950
