10
gdb 21788	7.61564	1.33305	1.13447	4.4332	51.5	-0.2798	-0.1053	0.1745	920.9651	0.060031	-450.612079	-450.605571	-450.604627	-450.643199	22.534
O         -0.10880       -0.00970       -0.00120
C         -0.01210        1.18650        0.00680
C          1.28420        1.91560       -0.00130
N          2.44740        1.34310       -0.01790
O          3.37530        2.38730       -0.01970
C          2.73530        3.61540       -0.00360
O          3.27400        4.67940       -0.00140
N          1.38910        3.28360        0.00780
H         -0.89900        1.85650        0.02140
H          0.65000        3.96580        0.02080
