15
gdb 8322	6.24987	1.32954	1.31719	0.9412	62.59	-0.2634	0.019	0.2824	941.4535	0.1189	-399.7734	-399.766432	-399.765488	-399.805144	25.664
N         -0.06860        1.17870        0.66600
C         -0.07030        0.06810        0.08940
C         -1.12410       -0.95530       -0.27350
C          0.06360       -1.73210       -0.86700
C          0.44620       -3.17060       -0.49420
O          0.39070       -3.57660       -1.87750
C          0.15460       -2.22330       -2.31790
O          0.96890       -0.66690       -0.45840
H          0.87270        1.57140        0.71950
H         -1.62190       -1.42510        0.57690
H         -1.87260       -0.61140       -0.98980
H          1.45380       -3.25720       -0.06920
H         -0.26730       -3.72110        0.13020
H         -0.75550       -2.13510       -2.92290
H          1.00640       -1.80370       -2.86720
