20
gdb 15621	2.79121	1.69879	1.15268	1.9544	78.79	-0.2192	0.0273	0.2465	1099.4387	0.176343	-349.021623	-349.012626	-349.011682	-349.055662	32.045
C         -0.29050        1.60250       -0.12190
C          0.06120        0.10920        0.01570
C          0.77890       -0.45140       -1.17550
C          2.03340       -0.89940       -1.27930
C          3.11200       -0.98230       -0.24760
C          2.27570       -1.37600       -2.68860
O          1.06370       -1.14860       -3.39510
C          0.09330       -0.59980       -2.51230
H          0.61290        2.20520       -0.25690
H         -0.94350        1.78460       -0.98100
H         -0.80930        1.96170        0.77210
H          0.66550       -0.03690        0.91700
H         -0.86710       -0.45750        0.17500
H          3.46290       -2.01510       -0.12560
H          3.98730       -0.38950       -0.54260
H          2.77950       -0.62330        0.72920
H          3.10140       -0.83210       -3.17760
H          2.53940       -2.44720       -2.72130
H         -0.78310       -1.26800       -2.44980
H         -0.26860        0.35970       -2.91510
