18
gdb 13542	2.74727	1.70802	1.28917	2.5569	71.89	-0.2669	0.025	0.2919	1009.6481	0.15409	-343.978519	-343.969748	-343.968804	-344.011928	31.968
C         -0.14190        1.51790       -0.21280
C         -0.03980        0.02630        0.02760
C          1.24420       -0.73560       -0.19990
C          0.68340       -0.60070        1.19780
C          1.39520        0.15450        2.31790
N          2.03300       -0.82380        3.21130
C          2.36460        1.16140        1.83320
N          3.17310        1.92050        1.50380
H          0.78980        2.04120        0.01130
H         -0.38480        1.71490       -1.26250
H         -0.93540        1.96440        0.39730
H         -0.94370       -0.51240       -0.24680
H          1.21150       -1.70670       -0.68130
H          2.12500       -0.14730       -0.43890
H          0.21450       -1.48550        1.61740
H          0.64740        0.69280        2.91450
H          2.74320       -1.33530        2.69350
H          2.51480       -0.34380        3.96640
