16
gdb 21200	6.7668	1.31733	1.12543	1.9283	68.95	-0.1972	0.0223	0.2195	1058.0209	0.132545	-376.126867	-376.118825	-376.117881	-376.159596	28.028
C         -0.01110        1.36690        0.14640
N         -0.13380        0.01060       -0.36070
C         -1.29230       -0.69280       -0.13600
N         -1.33740       -2.02310       -0.18930
N         -2.66500       -2.26800        0.02350
C         -3.16640       -3.62060        0.04130
C         -3.31610       -1.10860        0.19730
N         -2.48880       -0.08090        0.10770
H          0.90320        1.81180       -0.25410
H         -0.86410        1.95570       -0.19510
H          0.01970        1.42520        1.24490
H          0.69210       -0.56320       -0.28100
H         -4.24020       -3.59530        0.23690
H         -2.98540       -4.10580       -0.92200
H         -2.66940       -4.19920        0.82500
H         -4.37840       -1.05590        0.38580
