15
gdb 18671	3.36556	2.38805	1.55999	2.0712	62.41	-0.2607	0.0113	0.272	795.2007	0.120992	-399.791085	-399.784665	-399.783721	-399.821805	24.763
N         -0.07030        1.26640        0.18770
C         -0.00290        0.01930       -0.00920
O          1.19540       -0.63490       -0.16540
C          1.13360       -1.84760       -0.91310
O          0.28650       -2.78520       -0.32710
C         -1.03950       -2.32230       -0.26390
C         -1.49520       -1.83210        1.07040
C         -1.21890       -0.83670       -0.05450
H          0.86740        1.67320        0.17130
H          0.82100       -1.61550       -1.94250
H          2.14200       -2.26240       -0.90170
H         -1.72210       -2.86070       -0.91590
H         -2.53090       -1.96960        1.35780
H         -0.77340       -1.89390        1.87600
H         -2.08170       -0.34740       -0.48740
