16
gdb 20812	5.68945	1.22736	1.09891	2.4802	67.29	-0.2149	0.0289	0.2438	1086.7345	0.131865	-379.953786	-379.94592	-379.944976	-379.986632	28.835
C         -0.21090        1.51690        0.00860
C          0.01970       -0.00550        0.00240
C          0.84920       -0.48460        1.15300
C          2.20810       -0.71570        1.27060
C          2.38140       -1.10790        2.61560
O          3.55670       -1.44010        3.19070
N          1.24520       -1.12810        3.29540
N          0.32110       -0.73860        2.37590
H          0.74110        2.05360       -0.03670
H         -0.81800        1.82050       -0.84970
H         -0.72770        1.83420        0.91960
H         -0.94810       -0.52280        0.00800
H          0.51700       -0.29690       -0.92800
H          2.96060       -0.62100        0.50590
H          3.36440       -1.66710        4.10910
H         -0.64430       -0.68890        2.65070
