15
gdb 3988	6.73733	0.75426	0.68407	1.2814	74.49	-0.227	-0.0242	0.2028	1562.3381	0.115331	-399.721231	-399.71153	-399.710586	-399.757788	32.229
C         -0.79350        1.14380        0.05730
C          0.15000       -0.03490        0.06210
N          0.91600       -0.34270        1.05130
O          0.75010        0.55910        2.10470
C          0.21410       -0.87210       -1.08680
C          0.21210       -1.53380       -2.09520
C          0.24680       -2.36470       -3.29040
O         -0.66630       -1.85510       -4.25330
H         -0.23470        2.07130        0.21640
H         -1.33690        1.20350       -0.88520
H         -1.50490        1.05720        0.88440
H          1.36710        0.21890        2.76160
H          1.27710       -2.38110       -3.68290
H         -0.00160       -3.40190       -3.01050
H         -0.61650       -2.42670       -5.02630
