24
gdb 10603	2.17152	1.64815	1.25206	0.0976	85.31	-0.2549	0.0823	0.3373	1171.9424	0.222131	-314.272914	-314.262845	-314.261901	-314.307468	37.552
C         -0.73460        1.52910        0.73910
C         -0.09510        0.26320        0.15170
C          0.86170       -0.44560        1.10370
C          2.09010        0.35290        1.53130
C          3.04530        0.70240        0.38320
C          0.26150       -1.36930        2.14400
C          1.06160       -1.94720        0.99810
C          0.41970       -2.83090       -0.05040
H          0.00920        2.30260        0.95400
H         -1.45970        1.95800        0.04010
H         -1.25970        1.30560        1.67380
H         -0.89500       -0.42530       -0.13790
H          0.42770        0.51950       -0.77880
H          1.77730        1.27370        2.03990
H          2.63660       -0.22970        2.28310
H          3.93580        1.21630        0.75860
H          3.37470       -0.20050       -0.14210
H          2.57440        1.36100       -0.35340
H          0.68630       -1.38080        3.14290
H         -0.81450       -1.51850        2.12230
H          2.06600       -2.27180        1.26430
H         -0.61710       -2.55000       -0.25410
H          0.96680       -2.79330       -0.99960
H          0.41050       -3.87450        0.28380
