16
gdb 17781	6.92945	1.04703	1.01379	2.3331	74.24	-0.2356	0.0407	0.2763	1184.5715	0.129506	-346.50673	-346.499013	-346.498069	-346.540269	27.733
C          0.06280        1.56550       -0.05810
C          0.05410        0.11080       -0.00720
C          0.04910       -1.09380        0.03320
C          0.05360       -2.53940        0.07290
C         -0.13030       -3.32840        1.41330
C         -1.61480       -2.90090        1.47390
C         -1.27390       -3.36980        0.04070
O         -0.52680       -4.50800        0.61590
H          0.89360        1.93620       -0.66850
H         -0.86560        1.95430       -0.49100
H          0.16820        1.99840        0.94290
H          0.82660       -2.98480       -0.55770
H          0.59190       -3.47730        2.21620
H         -2.26260       -3.57540        2.03410
H         -1.84020       -1.84510        1.62990
H         -1.92820       -3.56850       -0.80830
