19
gdb 19905	4.46625	1.49705	1.34534	1.5145	74.64	-0.2132	0.0651	0.2783	997.0095	0.166031	-327.826999	-327.81957	-327.818626	-327.858805	29.17
C         -0.25500        1.56860        0.13690
C          0.13900        0.11850       -0.17200
C          0.80310       -0.54160        1.03760
C          0.79990       -1.93390        1.55310
C          0.96870       -3.09900        0.56230
C          1.05870       -2.66830       -0.87470
C          2.20280       -2.38640        0.06590
N          2.09110       -1.28100        1.10000
H          0.62190        2.16430        0.41150
H         -0.72480        2.04140       -0.73080
H         -0.96520        1.61710        0.96940
H         -0.75470       -0.43710       -0.47530
H          0.82630        0.10950       -1.02320
H          0.82490        0.15190        1.88070
H          0.64130       -2.13620        2.60950
H          0.84750       -4.13030        0.86480
H          1.28520       -3.49200       -1.54740
H          0.41860       -1.92080       -1.31530
H          3.20350       -2.75580       -0.11680
