16
gdb 17989	3.92358	1.77604	1.51438	2.5588	67.83	-0.2327	0.019	0.2516	859.0331	0.13255	-342.750806	-342.743933	-342.742989	-342.782711	25.598
N          0.11480       -1.14640        0.33730
C          0.04480       -0.00480        0.16310
C         -0.01190        1.43290       -0.02110
C         -0.35990        2.31550        1.22570
N          0.88520        3.12020        1.06410
C          2.01740        2.61720        1.91080
C          2.52060        1.68570        0.77260
C          1.33820        2.21670       -0.06360
H         -0.64510        1.65920       -0.88180
H         -1.26880        2.91000        1.10450
H         -0.42060        1.76540        2.17000
H          2.70450        3.42410        2.17930
H          1.69240        2.12010        2.83090
H          3.50080        1.94320        0.36790
H          2.50050        0.61390        0.98180
H          1.57090        2.67760       -1.02650
