18
gdb 17106	4.93291	1.42808	1.34315	1.5242	73.39	-0.2109	0.0265	0.2374	975.4394	0.155054	-347.763645	-347.756437	-347.755493	-347.795266	27.93
O         -0.03440        1.40010        0.04660
C         -0.04090       -0.01620        0.01630
C         -1.44400       -0.50410        0.00960
C         -2.60920        0.14940        0.02640
C         -3.64920       -0.98240        0.00500
C         -3.01630       -1.96600        1.04900
C         -1.87020       -1.98370       -0.02080
C         -3.02170       -1.92070       -1.08310
H          0.88090        1.69380        0.05090
H          0.48710       -0.40170       -0.87540
H          0.49170       -0.43940        0.88790
H         -2.79820        1.21170        0.04950
H         -4.70730       -0.72240        0.01320
H         -2.77710       -1.56530        2.03690
H         -3.54710       -2.92040        1.13070
H         -1.09570       -2.75190       -0.03920
H         -3.55300       -2.87080       -1.20260
H         -2.78750       -1.47820       -2.05430
