22
gdb 6475	3.68173	1.23618	1.13906	1.5755	77.68	-0.2538	0.0738	0.3276	1171.6744	0.199008	-350.202428	-350.193164	-350.192219	-350.23583	35.457
C         -0.17870        1.80660       -0.12010
C         -0.37070        0.28630       -0.17050
C          0.61460       -0.46080       -1.07700
C          0.46500       -0.05530       -2.54760
C          2.11020       -0.45970       -0.61410
C          2.17220       -1.97900       -0.91930
O          2.90010       -2.83550       -0.07460
C          0.62200       -2.01560       -0.90890
H          0.84030        2.06710        0.18700
H         -0.36240        2.27520       -1.09160
H         -0.86730        2.26160        0.59860
H         -0.27790       -0.11560        0.84700
H         -1.39580        0.05680       -0.49360
H          0.69720        1.00350       -2.70070
H          1.13600       -0.63110       -3.19310
H         -0.55930       -0.22930       -2.89760
H          2.81370        0.19730       -1.13250
H          2.19290       -0.27850        0.46430
H          2.56750       -2.16580       -1.92140
H          2.57820       -2.70810        0.82420
H          0.24710       -2.31090        0.07830
H          0.11580       -2.61800       -1.66820
