20
gdb 13731	5.54121	0.76404	0.71928	1.0657	72.02	-0.2525	0.0794	0.332	1571.8231	0.175586	-386.114539	-386.105002	-386.104058	-386.149623	34.037
O         -0.08720        1.41270       -0.35670
C         -0.00410        0.06150        0.07420
C         -1.38390       -0.56650       -0.06740
C         -1.41420       -2.03550        0.36950
C         -2.78990       -2.65630        0.24220
C         -3.27330       -3.18330       -1.09760
C         -2.95740       -4.13290        0.03200
O         -1.78960       -4.90350       -0.01920
H          0.78270        1.81120       -0.26270
H          0.72500       -0.50480       -0.52900
H          0.32750       -0.00140        1.12400
H         -2.09490        0.02180        0.52600
H         -1.70360       -0.47810       -1.11240
H         -0.70210       -2.62180       -0.22070
H         -1.07980       -2.11590        1.41290
H         -3.55040       -2.19080        0.86500
H         -4.30660       -3.03410       -1.39180
H         -2.55900       -3.15560       -1.91490
H         -3.79530       -4.61820        0.53310
H         -1.91140       -5.57900       -0.69400
