17
gdb 8351	4.52128	1.57437	1.43931	3.4471	69.61	-0.2502	0.0264	0.2766	908.9802	0.143538	-363.839932	-363.832788	-363.831844	-363.871797	27.122
O         -0.15820       -0.00240        0.00280
C         -0.00570        1.20010        0.00810
N          1.20040        1.83170        0.00040
C          2.44670        1.13210       -0.01570
C          2.97640        0.15180       -1.10660
C          4.09980        0.26500       -0.03630
C          3.84180        1.80320       -0.02240
C          2.99460        0.13540        1.05090
H         -0.84920        1.92010        0.02000
H          1.21410        2.83950        0.00500
H          2.45560       -0.80330       -1.18330
H          3.18760        0.58670       -2.08750
H          5.06830       -0.22980       -0.04830
H          4.11640        2.35500       -0.92640
H          4.13170        2.34120        0.88510
H          3.22250        0.55540        2.03460
H          2.47500       -0.82070        1.12200
