13
gdb 4316	3.93756	2.02622	1.33821	5.7651	66.18	-0.217	-0.0372	0.1797	847.7575	0.097315	-394.821424	-394.81461	-394.813666	-394.852382	25.805
N         -0.01440        1.34230        0.09730
C         -0.00590       -0.01380        0.03350
N         -1.15190       -0.63540        0.02160
C         -1.19720       -1.99770       -6.85710
N         -2.26450       -2.67740        0.00000
O          0.05110       -2.71900       -0.03200
C          1.19990       -2.04430       -0.02360
C          1.26690       -0.70390        0.01050
H          0.81710        1.86770       -0.10590
H         -0.90560        1.79920       -0.01280
H         -2.04830       -3.67230       -0.02240
H          2.06360       -2.70120       -0.04660
H          2.21560       -0.18590        0.02480
