16
gdb 5796	6.0691	1.45408	1.2947	4.015	70.21	-0.2193	0.0296	0.249	947.0728	0.133074	-342.79899	-342.792204	-342.79126	-342.831949	25.456
C         -0.13630        1.43590       -0.15540
C          1.27850        0.95470        0.07920
C          0.13860       -0.02750        0.06130
N         -0.28690       -0.69380        1.26160
C         -0.73800       -1.99540        1.33120
C         -1.03390       -2.21890        2.65010
N         -0.77800       -1.09550        3.39740
C         -0.33420       -0.20510        2.53700
H         -0.62760        1.97370        0.64750
H         -0.42150        1.75810       -1.15050
H          1.97270        0.94390       -0.75350
H          1.73370        1.17030        1.03920
H          0.05660       -0.68570       -0.79490
H         -0.80020       -2.61420        0.45120
H         -1.41470       -3.12280        3.10060
H         -0.03400        0.80280        2.77990
