18
gdb 394	7.30037	1.88258	1.63985	1.4336	60.24	-0.2621	0.0721	0.3342	805.7386	0.164626	-272.844804	-272.836705	-272.835761	-272.876509	28.828
C         -0.00430        1.56020        0.08330
C         -0.00840        0.03270       -0.00990
C          0.71160       -0.50060       -1.25520
O          2.06440       -0.04350       -1.30990
C          0.63310       -2.02850       -1.36800
C          1.28260       -2.57490       -2.64150
H          1.01850        1.94420        0.04850
H         -0.55270        2.00600       -0.75400
H         -0.47300        1.90390        1.01030
H          0.47080       -0.39850        0.88190
H         -1.03920       -0.34380       -0.01060
H          0.24700       -0.05740       -2.14710
H          2.52140       -0.40700       -0.54250
H          1.11540       -2.46920       -0.48250
H         -0.42040       -2.33170       -1.32030
H          0.76040       -2.21380       -3.53450
H          2.32280       -2.24670       -2.71310
H          1.26130       -3.66860       -2.66160
