17
gdb 5962	3.42237	1.16268	1.05955	4.1347	64.85	-0.2779	0.017	0.2949	1152.6735	0.139437	-401.004043	-400.994472	-400.993528	-401.038317	33.818
C          0.14810        1.58400        0.00970
C         -0.01180        0.05800        0.00770
O          0.68290       -0.40760        1.16110
C         -1.48640       -0.40360        0.00860
C         -2.28230        0.06050        1.22570
O         -3.52760       -0.61870        1.17630
C          0.63990       -0.49460       -1.20780
N          1.14410       -0.95220       -2.14150
H          1.20560        1.84680       -0.05610
H         -0.38220        2.02950       -0.83500
H         -0.25090        1.99090        0.94120
H          0.65570       -1.37170        1.16490
H         -1.97690       -0.06320       -0.90920
H         -1.51200       -1.49960       -0.01390
H         -1.72350       -0.17880        2.14160
H         -2.42610        1.15090        1.19900
H         -4.05310       -0.33730        1.93090
