15
gdb 14302	3.88863	1.90325	1.82602	2.5745	60.63	-0.2229	0.0464	0.2693	783.3351	0.121277	-395.971644	-395.964541	-395.963597	-396.002824	27.175
N          0.05230        1.43670       -0.04440
C          0.00180        0.00650        0.04790
C         -0.48990       -0.71730        1.28400
O         -1.26300        0.06390        2.18530
C         -2.37680        0.42410        1.48140
N         -3.20200        1.29100        2.14290
N         -2.51760       -0.02330        0.28920
C         -1.31670       -0.76770        0.01190
H         -0.82460        1.79980       -0.40390
H          0.19600        1.85980        0.86650
H          0.81780       -0.51910       -0.44680
H          0.04920       -1.51640        1.77560
H         -3.19310        1.20690        3.14840
H         -4.12210        1.36110        1.73570
H         -1.41380       -1.63410       -0.63100
