17
gdb 18456	3.91032	1.46817	1.36146	3.7846	68.44	-0.2441	0.0091	0.2532	977.4421	0.14262	-363.8593	-363.85174	-363.850796	-363.89145	28.404
C          0.20810        1.36660        0.21520
C         -0.18240       -0.07600       -0.12770
C          0.61010       -0.62330       -1.29700
C          1.97210       -1.24790       -1.20640
N          2.14450       -2.07310       -0.00730
C          1.01650       -2.86200       -0.31320
O          0.48720       -3.75640        0.28210
C          0.78930       -2.11350       -1.62050
H          1.26450        1.43400        0.49650
H          0.05170        2.03470       -0.63880
H         -0.38760        1.74790        1.04970
H         -0.04920       -0.71570        0.75100
H         -1.24980       -0.12360       -0.37450
H          0.48450       -0.04350       -2.21240
H          2.83140       -0.96560       -1.80070
H          2.32330       -1.70190        0.91920
H          0.54190       -2.53720       -2.58340
