17
gdb 10088	2.41136	1.91239	1.64882	2.6558	62.03	-0.2496	0.0095	0.259	894.7776	0.142536	-438.128618	-438.120459	-438.119515	-438.161184	29.887
O          0.29800        0.94660       -0.61130
C          0.15070       -0.15680        0.24710
C         -1.26580       -0.74220        0.27210
C         -2.31940        0.22470        0.83320
O         -2.26110        1.53870        0.31960
O         -1.56010       -1.35060       -1.02140
C         -2.10460       -0.73350       -2.06180
N         -2.61840        0.42860       -2.08750
H         -0.39110        1.57480       -0.34510
H          0.84690       -0.92870       -0.09770
H          0.41760        0.08390        1.29150
H         -1.25470       -1.61820        0.93150
H         -3.31920       -0.21730        0.71020
H         -2.12520        0.29410        1.91000
H         -2.51900        1.42850       -0.62640
H         -2.07420       -1.41260       -2.91890
H         -2.97530        0.64720       -3.01260
