15
gdb 17731	4.80649	2.51247	2.08783	1.599	63.99	-0.2327	0.0745	0.3071	667.907	0.121159	-362.529105	-362.523915	-362.52297	-362.558022	22.008
C         -0.05530        1.54430       -0.00680
N          1.46540        1.30340       -0.04680
C          1.29130        0.18850        1.01400
C          1.79290       -0.98720        0.18300
O          0.82050       -2.05250        0.33840
C         -0.48600       -1.40400        0.32580
C          0.00480        0.01850        0.15310
C          1.21160       -0.00800       -0.83080
H         -0.38100        2.13970        0.85120
H         -0.45840        1.94890       -0.93990
H          1.34960        0.39930        2.08170
H          2.79120       -1.42030        0.18600
H         -1.07990       -1.79160       -0.50850
H         -1.00310       -1.60210        1.27040
H          1.17680       -0.02690       -1.91990
