16
gdb 21197	3.54714	1.92721	1.27074	3.8436	67.26	-0.212	0.0329	0.2449	941.6989	0.132488	-376.125575	-376.117465	-376.116521	-376.158526	28.057
C          0.01190        1.44270        0.01090
N          0.11290       -0.01120       -0.05040
C          0.68080       -0.65470        1.02450
N          1.30900       -0.07890        2.03880
C          1.72500       -1.15330        2.76840
N          1.39870       -2.33630        2.29110
N          0.72340       -2.00390        1.14260
C          0.18820       -3.01600        0.26480
H          1.00470        1.86020        0.18560
H         -0.36300        1.80640       -0.94850
H         -0.64650        1.79540        0.81560
H         -0.70600       -0.46780       -0.42430
H          2.28630       -1.05190        3.68580
H         -0.88770       -3.16610        0.41800
H          0.36630       -2.73550       -0.77800
H          0.70550       -3.95120        0.47820
