18
gdb 13311	5.35793	1.19186	1.0384	2.1939	73.78	-0.2409	0.0571	0.298	1141.7706	0.15355	-347.779207	-347.770983	-347.770039	-347.812993	29.924
C         -0.01780       -1.24100       -0.03890
C         -0.00560       -0.04000       -0.00390
C          0.01550        1.41690        0.01680
C          1.43200        2.01330        0.00580
C          1.46100        3.54670       -0.07000
C          2.76170        3.87870        0.67280
C          2.77500        2.80110        1.76370
O          2.10700        1.66540        1.21530
H         -0.02750       -2.30230       -0.05860
H         -0.53010        1.80290       -0.85460
H         -0.50560        1.78750        0.90840
H          1.98440        1.58200       -0.84300
H          1.43550        3.91580       -1.09810
H          0.59800        3.96600        0.46170
H          3.62240        3.75920        0.00620
H          2.78690        4.89310        1.07810
H          3.78590        2.50520        2.06450
H          2.24250        3.14320        2.66390
