15
gdb 15213	2.34013	2.17763	1.44964	3.6331	68.96	-0.2534	-0.0004	0.253	904.2246	0.11639	-362.620455	-362.612147	-362.611203	-362.653173	29.647
C          0.12170        1.44360        0.24840
C         -0.09000       -0.02750       -0.01410
C          0.57940       -0.73140       -1.19020
C          1.44490       -0.01130       -2.08290
C          2.13820        0.58240       -2.86470
N          0.96700       -0.99150        0.18680
C          2.20820       -0.80700        0.76830
O          3.26000       -1.13550        0.28120
H          1.09710        1.77570       -0.11510
H         -0.65100        2.02780       -0.26120
H          0.05210        1.66110        1.31890
H         -1.07770       -0.40350        0.25120
H          0.03190       -1.54960       -1.65390
H          2.77160        1.09540       -3.54570
H          2.11200       -0.39010        1.79030
