18
gdb 15413	4.39197	0.9065	0.80081	4.443	70.27	-0.2452	-0.0169	0.2283	1393.0755	0.152184	-384.931117	-384.922173	-384.921229	-384.965461	31.462
O          0.05850        1.42070        0.05830
C          0.04360        0.01020        0.20090
C         -1.32660       -0.48460       -0.25460
C         -1.44110       -1.99190       -0.15140
C         -1.91200       -2.66570        1.09440
C         -2.78050       -2.73180       -0.15880
C         -4.06970       -2.00580       -0.17100
O         -5.05240       -2.37850       -0.76450
H          0.91720        1.74510        0.34460
H          0.83040       -0.46350       -0.40940
H          0.21730       -0.29190        1.24620
H         -2.08690        0.01440        0.35450
H         -1.48790       -0.15860       -1.28870
H         -0.67370       -2.52590       -0.70770
H         -1.44660       -3.58790        1.42220
H         -2.27290       -2.03370        1.90090
H         -2.81280       -3.67110       -0.70000
H         -4.08970       -1.07090        0.43450
