17
gdb 18411	3.31973	2.21249	1.48825	1.5594	63.38	-0.2559	0.0679	0.3238	842.3467	0.145427	-400.962392	-400.95589	-400.954946	-400.992885	25.793
C          0.00330        1.39960        0.12290
O          1.26270        1.99900       -0.03190
C          2.15710        1.78580        1.05250
C          2.85120        0.43700        0.96700
N          2.80680       -0.41750        2.16800
C          2.04350       -0.80780        0.96820
C          0.52900       -0.72350        1.05490
O         -0.03110        0.00500       -0.03000
H         -0.41330        1.67090        1.11130
H         -0.62150        1.80420       -0.67650
H          2.88870        2.59860        1.00800
H          1.62840        1.85920        2.01360
H          3.75870        0.41820        0.36760
H          3.65720       -0.96910        2.24340
H          2.42990       -1.62970        0.36950
H          0.08490       -1.72270        1.01210
H          0.24740       -0.26920        2.01560
