19
gdb 17401	4.18177	1.54842	1.48102	1.7298	75.39	-0.2228	0.0827	0.3055	951.6122	0.165867	-327.86467	-327.857176	-327.856232	-327.896143	29.348
C         -0.10330        1.51700        0.00800
C         -0.02070        0.00670        0.03960
C          1.30180       -0.69520       -0.19000
C          0.67160       -0.70200        1.17060
C          1.28760       -0.16330        2.46880
N          0.91170       -1.42060        3.21620
C         -0.55800       -1.51260        3.13520
C          0.22690       -1.91550        1.94990
H          0.79590        1.97160        0.43720
H         -0.20200        1.88740       -1.01830
H         -0.96360        1.88410        0.57890
H         -0.89470       -0.50250       -0.36150
H          1.30680       -1.61980       -0.75930
H          2.18510       -0.07920       -0.33570
H          2.37520       -0.06070        2.43730
H          0.85200        0.74540        2.90050
H         -0.96480       -2.29690        3.76660
H         -1.14660       -0.59730        3.10620
H          0.31400       -2.94710        1.62100
