16
gdb 13322	5.2773	1.14199	1.02295	2.8419	68.43	-0.2367	-0.0347	0.2021	1123.6124	0.129403	-383.748521	-383.740536	-383.739592	-383.782619	27.292
O          0.18080       -0.19870       -0.31990
C          0.07730        0.99600       -0.24250
C          1.24420        1.95870       -0.04560
C          1.30420        2.97270       -1.14850
C          0.98040        4.26310       -1.11870
C          1.17800        4.87740       -2.47390
O          1.63330        3.81180       -3.30490
C          1.74460        2.61380       -2.54770
H         -0.91250        1.50150       -0.31750
H          1.08990        2.46680        0.91480
H          2.16220        1.36500        0.01640
H          0.63490        4.82230       -0.25770
H          0.24800        5.30020       -2.88600
H          1.92250        5.68960       -2.46140
H          2.78360        2.24520       -2.56790
H          1.11880        1.82510       -2.99620
