11
gdb 21622	4.1689	2.07439	1.38516	3.4461	56.5	-0.2531	-0.08	0.173	792.4216	0.07424	-426.918252	-426.911755	-426.910811	-426.948992	23.636
N          0.01480        1.30640        0.00800
C         -0.04360       -0.03440        0.00090
N         -1.20360       -0.64120        0.00400
C         -1.18830       -2.00790       -0.00360
O         -2.13580       -2.75420       -0.00270
N          0.12870       -2.56450       -0.01420
N          1.27040       -1.89770       -0.01690
N          1.22990       -0.62610       -0.00950
H          0.90970        1.76290        0.00560
H         -0.83820        1.83830        0.01580
H          0.22090       -3.57180       -0.02040
