18
gdb 18357	3.3705	2.1297	1.58123	1.3674	73.95	-0.2319	0.0152	0.2471	853.29	0.15544	-347.784399	-347.777483	-347.776539	-347.815191	27.867
O          0.13150        1.41250       -0.01640
C          0.07410       -0.00430       -0.02150
C          0.58230       -0.59490        1.33700
C         -0.68900       -0.65370        2.18570
C         -1.73770       -0.71630        1.36880
C         -3.18040       -0.31830        1.15040
C         -2.68510        0.28850       -0.21830
C         -1.37430       -0.56050       -0.08240
H         -0.30200        1.71190        0.79150
H          0.69170       -0.31190       -0.86970
H          1.03450       -1.58630        1.19440
H          1.35880        0.05000        1.76250
H         -0.69160       -0.57640        3.26680
H         -3.84650       -1.17260        0.98830
H         -3.64330        0.35060        1.88070
H         -3.31120        0.10070       -1.09300
H         -2.47880        1.35820       -0.14560
H         -1.42610       -1.48420       -0.67060
