20
gdb 14773	10.88247	0.55532	0.54384	3.0826	74.54	-0.2512	-0.021	0.2302	2012.1207	0.173842	-386.147051	-386.136899	-386.135955	-386.183757	33.738
C         -0.06440        1.52780        0.07990
C         -0.00830        0.00990        0.05630
O         -1.32910       -0.48940       -0.01130
C         -1.39520       -1.89540       -0.04040
C         -2.85950       -2.30680       -0.13070
C         -3.03580       -3.83310       -0.16280
C         -4.49420       -4.23050       -0.12890
O         -5.03400       -4.95270       -0.92580
H          0.94520        1.94600        0.13190
H         -0.55210        1.90740       -0.82240
H         -0.63070        1.87730        0.94780
H          0.57570       -0.34310       -0.81080
H          0.49690       -0.37330        0.95950
H         -0.83190       -2.29280       -0.90300
H         -0.93420       -2.32530        0.86700
H         -3.39470       -1.88230        0.72710
H         -3.29700       -1.85810       -1.02940
H         -2.57370       -4.28100       -1.04740
H         -2.55910       -4.27080        0.72740
H         -5.06560       -3.78820        0.72180
