14
gdb 1837	6.58579	2.06184	1.60153	3.8779	63.45	-0.2395	-0.0235	0.216	755.4821	0.114302	-324.609784	-324.603316	-324.602372	-324.640045	23.689
C         -0.03030        1.47490        0.05710
C         -0.00120       -0.01300       -0.03790
C         -0.04180       -0.80370       -1.11430
C          0.01330       -2.20720       -0.69660
N         -0.00370       -3.23210       -1.44000
O          0.08910       -2.23420        0.68020
C          0.08560       -0.89810        1.17950
H          0.86910        1.85580        0.55660
H         -0.09460        1.93690       -0.93040
H         -0.88680        1.81530        0.65200
H         -0.10510       -0.51330       -2.15280
H          0.04670       -4.08220       -0.87640
H          1.00170       -0.72390        1.76150
H         -0.76870       -0.76460        1.85810
