15
gdb 1482	4.64037	1.55131	1.32581	3.2115	55.07	-0.2795	0.0013	0.2808	906.6144	0.122964	-382.812383	-382.804246	-382.803302	-382.845631	27.628
C          0.03120        1.65210        0.02130
C          0.01360        0.12960       -0.00500
C          0.72050       -0.51180        1.19090
O          0.14390       -0.12640        2.42010
O         -1.35880       -0.32970        0.06440
C         -1.95080       -0.77930       -1.05680
O         -3.08050       -1.16430       -1.08270
H          1.05950        2.01680       -0.06400
H         -0.55050        2.06330       -0.80820
H         -0.38660        2.01420        0.96300
H          0.46680       -0.24780       -0.93200
H          0.71270       -1.60510        1.06330
H          1.76490       -0.18350        1.21310
H         -0.78180       -0.39510        2.38980
H         -1.27700       -0.75520       -1.93590
