17
gdb 2985	3.92383	1.93672	1.42478	2.7391	64.92	-0.2424	-0.0173	0.2251	873.4012	0.146661	-309.717869	-309.709909	-309.708964	-309.750647	28.11
C          0.10010        1.43870        0.10850
C         -0.04230       -0.08960        0.00390
C         -1.51140       -0.47030       -0.01530
O         -2.06450       -1.15680        0.80400
C          0.62660       -0.63160       -1.25120
C          2.08880       -1.00150       -1.22930
C          1.03870       -2.07990       -1.33150
H          1.15570        1.72270        0.07390
H         -0.40720        1.93870       -0.72460
H         -0.32950        1.81700        1.04090
H          0.39730       -0.56870        0.88580
H         -2.07270       -0.05360       -0.88740
H          0.26290       -0.18520       -2.17420
H          2.68880       -0.77930       -2.10480
H          2.62190       -0.90180       -0.28930
H          0.86400       -2.70050       -0.45890
H          0.92040       -2.59880       -2.27600
