16
gdb 9891	4.02944	1.24505	1.1674	4.9007	61.99	-0.2738	0.0067	0.2805	1062.5174	0.128105	-420.877984	-420.869538	-420.868594	-420.911648	29.445
C         -0.07260        1.63370       -0.15410
C         -0.19120        0.13380       -0.02240
C         -1.59360       -0.43690       -0.02200
O         -2.37870        0.12650        1.03600
C         -2.32240       -0.49130        2.23880
O         -2.89540       -0.07090        3.19690
C          0.91270       -0.75340       -0.41740
O          0.66210       -0.47390        0.96200
H         -0.45660        1.96880       -1.12360
H         -0.65220        2.13070        0.62840
H          0.97160        1.94090       -0.06480
H         -2.12100       -0.18620       -0.94650
H         -1.55220       -1.52770        0.07480
H         -1.70730       -1.40920        2.22120
H          0.71100       -1.77680       -0.73270
H          1.82310       -0.31720       -0.82540
