10
gdb 79	10.20696	3.93135	2.9219	4.5676	35.87	-0.246	0.0273	0.2733	418.5967	0.078222	-284.360325	-284.354148	-284.353204	-284.390143	20.089
N         -0.08120        1.31810        0.01280
C          0.05440       -0.04480        0.08160
O          1.12160       -0.59780        0.20940
C         -1.28690       -0.79010        0.06180
O         -1.04610       -2.13950       -0.23960
H          0.76620        1.85990       -0.04480
H         -0.93020        1.74570       -0.31570
H         -1.74560       -0.65520        1.05530
H         -1.96030       -0.31150       -0.67030
H         -1.85640       -2.63020       -0.07630
