16
gdb 8763	4.14374	1.25754	1.14965	1.9726	67.45	-0.2618	-0.0459	0.2159	1057.4889	0.12677	-383.713244	-383.704239	-383.703295	-383.746867	32.204
C          0.06910        1.58080        0.01260
C         -0.00810        0.04320        0.06430
C          0.76130       -0.49520        1.18240
C          1.39600       -0.93300        2.10390
C         -1.48580       -0.45110        0.13550
O         -2.17490        0.11190        1.21200
C         -2.20560       -0.15640       -1.16660
O         -3.23620        0.47100       -1.19660
H          1.10990        1.90940       -0.02240
H         -0.44540        1.96740       -0.87340
H         -0.40340        2.00500        0.90010
H          0.41530       -0.36720       -0.86450
H          1.95500       -1.32020        2.91950
H         -1.45490       -1.55160        0.22700
H         -2.95430        0.54400        0.82790
H         -1.73880       -0.55820       -2.08980
