14
gdb 3039	5.39682	1.82938	1.46949	3.1261	57.57	-0.2705	0.0117	0.2822	808.4726	0.112811	-324.556404	-324.549316	-324.548372	-324.58816	24.866
N          0.78000       -0.32360        1.08120
C          0.32220        0.53810        0.46280
C         -0.27590        1.62640       -0.33800
O          0.66950        2.47250       -0.94240
C          1.31370        3.34330       -0.04850
C          2.58050        2.90500        0.63780
C          2.62090        3.89690       -0.50790
H         -0.86010        1.17690       -1.14670
H         -0.97020        2.18550        0.30750
H          0.62650        3.99510        0.49120
H          2.76680        3.25720        1.64610
H          2.92860        1.89980        0.43450
H          2.98790        3.53440       -1.46120
H          2.83890        4.93800       -0.30010
