13
gdb 2629	14.81852	0.91712	0.88127	2.3616	56.07	-0.2661	-0.0428	0.2233	1184.4021	0.100399	-340.635024	-340.627255	-340.626311	-340.668053	25.201
O         -0.12520       -0.03890        0.21570
C          0.01240        1.10310       -0.13180
C          1.35290        1.82190       -0.17830
N          1.35320        2.83650       -1.22180
C          2.51940        3.71190       -1.17360
C          2.47570        4.70180       -2.25360
N          2.45390        5.46690       -3.11820
H         -0.84580        1.74130       -0.43830
H          1.46460        2.33000        0.79190
H          2.15830        1.07260       -0.24170
H          1.29550        2.40220       -2.13740
H          2.51830        4.24540       -0.21490
H          3.48680        3.18250       -1.23680
