16
gdb 20900	5.0345	1.41211	1.18494	2.2007	67.58	-0.2081	0.0226	0.2308	1021.9512	0.133028	-376.137201	-376.129502	-376.128558	-376.169538	28.102
C         -0.15650        1.51160        0.09140
C          0.12510        0.01170        0.00110
N          0.74520       -0.51120        1.20350
C          0.26250       -1.36380        2.12000
N          1.13990       -1.56970        3.08780
C          2.18510       -0.78320        2.69990
N          3.32220       -0.65160        3.47250
N          2.00610       -0.12070        1.56240
H          0.77110        2.05730        0.27670
H         -0.59330        1.86830       -0.84610
H         -0.85440        1.72960        0.90510
H         -0.79890       -0.55420       -0.15130
H          0.78920       -0.20110       -0.84310
H         -0.71840       -1.81000        2.04490
H          3.49750       -1.45900        4.05230
H          4.13520       -0.35660        2.95200
