17
gdb 1182	3.37325	2.03221	1.77186	2.6858	60.3	-0.2481	-0.0231	0.2251	803.6117	0.145152	-346.86454	-346.855773	-346.854829	-346.897331	30.941
C          0.05650        1.61570        0.30590
C          0.04830        0.09250        0.06220
C          0.72810       -0.62790        1.24510
C         -1.38750       -0.43030       -0.13830
O         -2.21270       -0.22430        1.00020
C          0.87220       -0.18130       -1.18550
O          0.47140       -0.72270       -2.18410
H          1.07870        2.00310        0.36910
H         -0.45820        2.15430       -0.49750
H         -0.43900        1.84780        1.25370
H          0.13040       -0.47870        2.14770
H          0.80320       -1.70500        1.06360
H          1.73630       -0.24060        1.42490
H         -1.82280        0.02120       -1.03940
H         -1.36090       -1.51070       -0.30510
H         -2.48950        0.69630        1.00760
H          1.93070        0.16730       -1.11030
