16
gdb 12521	2.89317	2.33825	1.69637	1.6141	75.	-0.2258	-0.0435	0.1823	814.5466	0.13268	-346.615612	-346.608675	-346.607731	-346.646592	27.024
O          0.24730        1.29850       -0.37390
C          0.05390       -0.08390       -0.05450
C          0.75240       -0.48100        1.21970
C          0.40410       -0.05500        2.45340
C         -0.78330        0.66590        2.82510
C         -1.96880        0.67710        2.15570
C         -2.27380       -0.02980        0.94120
C         -1.40350       -0.46070        0.00240
H         -0.15110        1.80920        0.34010
H          0.52070       -0.61210       -0.88990
H          1.64660       -1.09020        1.11800
H          1.08560       -0.28210        3.27100
H         -0.75530        1.16380        3.79140
H         -2.80350        1.18300        2.63480
H         -3.32910       -0.24060        0.77800
H         -1.78680       -1.05790       -0.82080
