15
gdb 4522	3.67807	1.70277	1.17623	1.6531	64.69	-0.1659	0.061	0.2269	969.3354	0.119668	-395.996174	-395.987517	-395.986573	-396.029046	31.251
N          0.14470        1.40430       -0.10790
C          0.01330       -0.00020       -0.04320
C         -1.09070       -0.83280       -0.00610
C         -0.59690       -2.16960       -0.01850
O         -1.31030       -3.33950        0.00860
C          0.77830       -2.12970       -0.04950
N          1.78140       -3.12330       -0.05640
N          1.12760       -0.78470       -0.06760
H          0.36650        1.81200        0.79660
H         -0.71900        1.82640       -0.42640
H         -2.12290       -0.51780        0.04670
H         -2.24390       -3.12090        0.07020
H          1.75410       -3.67820       -0.90680
H          1.66380       -3.77140        0.71620
H          2.07040       -0.45190       -0.17420
