16
gdb 12424	3.29833	2.0707	1.4223	2.5311	73.41	-0.2281	-0.0307	0.1974	871.8401	0.131657	-346.636928	-346.629924	-346.62898	-346.668606	26.644
O          0.30580        0.04680       -0.55740
C          0.10210        1.16980       -0.16880
C         -1.30670        1.63190        0.21940
C         -1.49360        2.83590        1.09990
C         -0.66270        3.32170        2.03650
C          0.69370        2.87520        2.32490
C          1.54860        2.37830        1.41840
C          1.20880        2.21480       -0.03970
H         -1.82920        1.80480       -0.73320
H         -1.81100        0.75990        0.65510
H         -2.46540        3.31430        0.99870
H         -1.03500        4.13280        2.65970
H          1.03910        3.00760        3.34770
H          2.53360        2.04960        1.73450
H          2.07140        1.88690       -0.62110
H          0.83080        3.16550       -0.44070
