15
gdb 11017	4.19387	1.78905	1.52051	3.8299	62.8	-0.2539	0.0233	0.2772	838.3449	0.119738	-399.798719	-399.791817	-399.790873	-399.829573	26.693
O         -0.24250        1.38940        0.09270
C         -0.09540        0.00930        0.04810
C         -0.36160       -0.77200       -1.19930
C         -1.29320       -0.90360        0.00470
C         -0.99180       -2.02850        0.92390
N         -1.78750       -2.94140        1.27830
O          0.31770       -1.93190        1.34160
C          0.85540       -0.63410        1.05030
H          0.40540        1.78340       -0.50110
H         -0.77640       -0.22010       -2.03550
H          0.28060       -1.60640       -1.46360
H         -2.30890       -0.54380       -0.07410
H         -1.33570       -3.56570        1.94890
H          1.87650       -0.76850        0.67790
H          0.88260       -0.02840        1.96410
