17
gdb 12357	3.10427	2.1421	1.32213	5.0692	72.15	-0.2157	-0.0257	0.19	914.0554	0.144071	-363.906277	-363.898799	-363.897855	-363.937819	28.498
C         -0.13320        1.52980       -0.01210
C          0.05000        0.01380        0.01810
C          0.75320       -0.50700       -1.24000
N          0.95370       -1.94920       -1.15310
C          1.43560       -2.44820        0.01990
C          1.42050       -1.76320        1.19110
C          0.78910       -0.45570        1.29140
O          0.76550        0.20880        2.31390
H          0.82670        2.03680       -0.16080
H         -0.80780        1.83210       -0.81940
H         -0.53920        1.87180        0.94090
H         -0.93890       -0.46860        0.06870
H          0.16200       -0.28450       -2.13320
H          1.72530        0.00540       -1.34410
H          1.23390       -2.42090       -1.99770
H          1.82790       -3.45990       -0.03640
H          1.82100       -2.20730        2.09310
