16
gdb 11642	3.27558	1.86521	1.46578	2.4155	69.91	-0.2576	0.0152	0.2728	887.9128	0.131761	-342.720576	-342.713444	-342.7125	-342.751908	27.04
C         -0.07700        1.56290       -0.07900
C          0.10780        0.06240       -0.01090
N          1.33240       -0.58020       -0.71230
C          2.14210       -0.14090        0.52030
C          0.83550       -0.66990        1.16040
C          0.99140       -1.81820        0.13320
C          0.46270       -0.73840        2.55900
N          0.15640       -0.78500        3.67320
H         -0.26220        1.85760       -1.11690
H         -0.95310        1.84890        0.51170
H          0.77490        2.13790        0.28840
H         -0.81410       -0.43480       -0.32960
H          3.04640       -0.73200        0.67830
H          2.35690        0.92500        0.57150
H          0.08670       -2.33950       -0.18690
H          1.83190       -2.50150        0.26720
