22
gdb 15195	8.33458	0.609	0.59512	1.3879	79.36	-0.2614	0.0813	0.3427	1894.2343	0.199491	-350.190824	-350.181076	-350.180131	-350.226369	34.7
O         -0.05250        1.42490        0.05820
C          0.00280        0.00950        0.16290
C         -1.39720       -0.53760       -0.08070
C         -1.46820       -2.06440        0.00680
C         -2.87730       -2.61780       -0.24430
C         -2.95150       -4.12710       -0.15140
C         -3.13850       -4.80210        1.18530
C         -4.25290       -4.81680        0.16630
H          0.83020        1.77250        0.21480
H          0.70210       -0.41730       -0.57530
H          0.35540       -0.30240        1.16010
H         -2.07780       -0.08490        0.65130
H         -1.73440       -0.19830       -1.06820
H         -0.77330       -2.50730       -0.72040
H         -1.12380       -2.39670        0.99540
H         -3.57560       -2.17740        0.48060
H         -3.22330       -2.29130       -1.23490
H         -2.30270       -4.64830       -0.85230
H         -2.60780       -5.72700        1.38280
H         -3.26140       -4.16800        2.05780
H         -5.12140       -4.19460        0.35760
H         -4.48090       -5.75130       -0.33470
