22
gdb 9913	4.49236	0.97294	0.92119	0.8418	79.87	-0.2491	0.0853	0.3344	1390.4564	0.198321	-350.193179	-350.183444	-350.1825	-350.228029	35.223
C          0.25480        1.44140        0.15060
C         -0.03220       -0.03490       -0.06650
O          0.77000       -0.49910       -1.13100
C          0.57690       -1.86890       -1.42280
C          1.41600       -2.24530       -2.62080
C          1.06120       -1.50980       -3.89820
C          2.85960       -2.60340       -2.36610
C          1.86280       -3.68510       -2.70880
H          1.30980        1.59480        0.39490
H          0.02700        2.01290       -0.75370
H         -0.35310        1.83270        0.97190
H          0.18290       -0.60900        0.85160
H         -1.10040       -0.19170       -0.29640
H          0.85420       -2.48790       -0.55220
H         -0.49090       -2.06260       -1.63060
H          1.14740       -0.42880       -3.75490
H          1.72290       -1.80160       -4.71960
H          0.03100       -1.72730       -4.20540
H          3.59190       -2.32610       -3.11670
H          3.22770       -2.55060       -1.34710
H          1.56120       -4.37070       -1.92330
H          1.91390       -4.13730       -3.69360
