14
gdb 5495	3.62651	1.90838	1.25242	2.4633	73.84	-0.1842	0.0189	0.2031	908.7508	0.108095	-341.586507	-341.578925	-341.577981	-341.617871	29.126
N          0.06790        1.38480        0.16530
C          0.01510       -0.00930        0.05140
C         -1.09420       -0.82310        0.03360
N         -0.65000       -2.13370       -0.01840
C          0.70610       -2.17290       -0.03030
C          1.17120       -0.86570        0.00750
C          2.51060       -0.42240       -0.00540
C          3.63650        0.01070       -0.02670
H          0.96540        1.74940       -0.12950
H         -0.67570        1.85970       -0.32850
H         -2.14510       -0.58850        0.06190
H         -1.24850       -2.93950       -0.03960
H          1.25150       -3.10090       -0.07250
H          4.63450        0.37160       -0.03090
