17
gdb 5081	3.2245	1.94719	1.23257	0.6786	71.26	-0.1739	0.0586	0.2325	970.7644	0.14111	-363.90716	-363.898166	-363.897222	-363.940783	32.073
C          0.00440        1.51180        0.00780
C          0.00870        0.01400       -0.00360
C         -0.03870       -0.79460       -1.10930
N         -0.01620       -2.11050       -0.67800
C          0.04560       -2.12750        0.68380
O          0.07670       -3.34260        1.29490
C          0.06330       -0.83650        1.15850
C          0.12610       -0.40140        2.59070
H          0.90500        1.92150        0.48270
H         -0.04140        1.91210       -1.00940
H         -0.85360        1.91600        0.55990
H         -0.08720       -0.55550       -2.15900
H         -0.03660       -2.93340       -1.25320
H          0.12150       -3.19840        2.24490
H          1.01710        0.20280        2.80300
H         -0.74380        0.20130        2.88050
H          0.15700       -1.25580        3.27850
