16
gdb 6468	3.96546	1.37687	1.25679	3.7632	61.18	-0.2389	-0.019	0.2199	984.77	0.127926	-420.877294	-420.869091	-420.868147	-420.909989	30.635
O         -0.01030        1.29540       -0.30230
C         -0.04990       -0.11440       -0.10500
C         -1.51010       -0.46330        0.14530
O         -1.99230        0.25060        1.25750
C         -2.39600       -0.39890       -1.15080
C         -2.40290       -1.93300       -1.14780
O         -2.70250       -2.76680       -1.95220
C         -1.77980       -1.98810        0.25590
H          0.90470        1.58870       -0.27760
H          0.33360       -0.65570       -0.98300
H          0.54290       -0.41060        0.77240
H         -1.66530        1.15390        1.15290
H         -3.38720        0.00710       -0.92590
H         -1.99260        0.09910       -2.03530
H         -0.92990       -2.66110        0.39890
H         -2.53070       -2.19110        1.02620
