20
gdb 11791	3.93799	1.68516	1.55257	1.4991	73.95	-0.2396	0.0844	0.3241	933.9141	0.178365	-348.997746	-348.990244	-348.9893	-349.029398	29.609
C          0.18060        1.51800        0.17790
C         -0.07760        0.02810       -0.07910
C          0.61470       -0.50110       -1.31000
C          0.79220       -2.01310       -1.60610
C          2.02520       -1.42220       -2.31660
C          1.42630       -0.64550       -3.50700
C          0.30080        0.08760       -2.71110
O          2.08520       -0.39530       -1.28020
H          1.25470        1.71690        0.22800
H         -0.24170        2.14530       -0.61310
H         -0.26950        1.83070        1.12460
H          0.26300       -0.55630        0.78340
H         -1.15440       -0.16020       -0.18100
H          1.06200       -2.56970       -0.70740
H          0.03350       -2.53850       -2.19320
H          2.95810       -1.96850       -2.45540
H          2.15410        0.04370       -3.94010
H          1.04990       -1.29970       -4.29840
H         -0.70850       -0.15850       -3.05310
H          0.41770        1.17260       -2.72550
