18
gdb 13767	3.35245	1.50619	1.26547	3.0188	73.12	-0.2489	0.0126	0.2614	1023.9306	0.152832	-343.969135	-343.960531	-343.959586	-344.002308	31.603
C          0.40660        1.53550       -0.12010
C          0.11480        0.04720        0.10940
C          0.59100       -0.39750        1.49610
N         -1.30220       -0.37500       -0.01310
C         -2.38880        0.56810       -0.15960
C         -2.01420       -0.34670       -1.29010
C         -1.41790        0.20530       -2.48380
N         -0.93190        0.60430       -3.45530
H          1.48580        1.70260       -0.05210
H          0.08610        1.88310       -1.10500
H         -0.07020        2.15600        0.64660
H          0.65760       -0.53290       -0.64630
H          0.41620       -1.46650        1.63850
H          1.65920       -0.19480        1.62100
H          0.04960        0.14220        2.28080
H         -3.29000        0.35560        0.41000
H         -2.16910        1.62350       -0.29740
H         -2.61890       -1.22850       -1.48870
