14
gdb 15286	2.65125	2.08908	1.44552	3.0188	67.14	-0.2611	0.0054	0.2665	872.586	0.105896	-341.521078	-341.513208	-341.512264	-341.553504	28.265
C         -0.76150        0.11090       -0.90030
C         -0.11310        0.57750       -0.00210
C          0.71720        1.11890        1.07320
N          1.66270        2.19730        0.72920
C          2.00250        2.45800       -0.65530
C          1.18630        3.44700        0.12460
C         -0.20180        3.67050       -0.20160
N         -1.31170        3.91300       -0.41900
H         -1.36360       -0.28430       -1.68130
H          0.08410        1.48830        1.88730
H          1.32640        0.30960        1.49240
H          3.04660        2.68130       -0.85460
H          1.47840        1.89900       -1.42610
H          1.67180        4.33470        0.52200
