17
gdb 11417	3.74898	1.57791	1.24973	4.2316	65.65	-0.2519	0.0573	0.3093	999.3504	0.143003	-401.029016	-401.02124	-401.020296	-401.061679	28.177
C          0.18940        1.48960       -0.06760
C          0.17310       -0.03820        0.01300
C          0.59520       -0.57000        1.38120
C          0.73480       -2.09920        1.45010
O          2.13590       -2.31040        1.25960
C          2.80100       -1.14540        1.51550
N          4.04610       -0.98290        1.57210
O          1.92520       -0.13230        1.70990
H          1.18740        1.87680        0.15160
H         -0.09990        1.83090       -1.06540
H         -0.50860        1.93090        0.65260
H         -0.83460       -0.42030       -0.19610
H          0.83690       -0.46740       -0.74830
H         -0.06760       -0.18370        2.16150
H          0.43430       -2.50490        2.42260
H          0.19110       -2.61790        0.65730
H          4.51910       -1.87340        1.43830
