12
gdb 654	7.4502	3.53716	3.25337	1.8437	46.16	-0.2388	0.0631	0.3019	452.7784	0.096525	-306.286325	-306.281284	-306.28034	-306.314443	19.211
O          0.00890        1.47410       -0.10640
C          0.02560        0.07960       -0.00870
C         -0.09260       -0.64460        1.37350
C         -1.53260       -0.10170        1.52160
C         -1.34280       -0.63240        0.07990
O         -0.62350       -1.80530        0.62780
H          0.91590        1.79300       -0.07030
H          0.72900       -0.40600       -0.69370
H          0.66360       -0.84050        2.13470
H         -2.18960       -0.70270        2.15120
H         -1.65970        0.97350        1.65170
H         -2.08070       -0.81250       -0.70200
