16
gdb 9517	3.15676	1.63532	1.51479	1.3129	61.32	-0.2561	-0.0367	0.2193	908.784	0.12816	-420.871175	-420.862838	-420.861893	-420.903991	29.991
C         -0.26540        1.63910        0.19660
C         -0.07010        0.13590        0.10450
C         -1.36050       -0.62170       -0.24070
O         -1.76730       -0.31010       -1.55610
O          0.95650       -0.23690       -0.87780
C          1.77550       -0.92840        0.08840
C          0.78930       -0.52950        1.19150
O          0.71650       -0.65910        2.37490
H          0.69380        2.15460        0.28630
H         -0.78070        1.99590       -0.69900
H         -0.87650        1.87970        1.07210
H         -1.20040       -1.70370       -0.11470
H         -2.16840       -0.32080        0.43310
H         -1.00840       -0.50430       -2.12120
H          1.85360       -2.00640       -0.10100
H          2.78230       -0.50240        0.17700
