13
gdb 16781	3.70239	2.15356	1.47981	1.4615	61.06	-0.2555	-0.0251	0.2304	795.8323	0.098335	-394.79932	-394.793158	-394.792214	-394.829611	23.816
N         -0.12600        1.29910       -0.05170
C         -0.03020        0.03730        0.01260
N          1.10460       -0.77610        0.10790
C          0.86470       -2.14280       -0.02700
O          1.70630       -3.00080       -0.10040
C         -0.63980       -2.28170       -0.08550
N         -1.25700       -1.76420        1.16160
C         -1.19540       -0.90530       -0.04480
H          0.78630        1.75670       -0.00710
H          2.04080       -0.42210        0.23550
H         -1.07800       -3.11340       -0.62100
H         -2.19880       -2.14710        1.23110
H         -2.10070       -0.59450       -0.54830
