18
gdb 16020	3.9445	1.84909	1.51858	1.7535	67.39	-0.2506	0.0887	0.3393	876.3726	0.155614	-384.928682	-384.921824	-384.92088	-384.959436	27.43
C          0.00050        1.49860       -0.03490
C          1.31440        0.73540       -0.04020
C         -0.01000        0.01030        0.03870
C         -0.42010       -0.74680        1.28610
C          0.02120       -2.20720        1.13560
O         -0.44620       -2.73670       -0.09960
C          0.00810       -1.96890       -1.18030
O         -0.45160       -0.63770       -1.13310
H         -0.27260        2.05940        0.85250
H         -0.32170        1.93840       -0.97170
H          1.85140        0.68440       -0.98040
H          1.94230        0.77790        0.84340
H          0.02460       -0.30010        2.18130
H         -1.51060       -0.70900        1.38950
H          1.12120       -2.27500        1.17890
H         -0.39340       -2.84140        1.92310
H          1.11370       -1.97830       -1.21030
H         -0.40340       -2.41410       -2.08800
