9
gdb 3922	8.87817	2.09426	1.69454	3.5241	45.5	-0.2817	-0.0904	0.1913	644.7354	0.05559	-375.368783	-375.363411	-375.362467	-375.398327	17.984
O         -0.07970       -0.00540       -0.00130
C          0.01200        1.19270        0.00650
C          1.30330        1.93670       -0.00130
N          2.48030        1.35800       -0.01760
O          3.36090        2.42960       -0.01850
C          2.61330        3.54010       -0.00310
N          1.34000        3.31610        0.00810
H         -0.86590        1.86890        0.02020
H          3.13570        4.48520       -0.00160
