14
gdb 3482	6.08907	2.93488	2.76246	1.8266	59.46	-0.2106	0.0715	0.2821	563.3954	0.113464	-287.318502	-287.312992	-287.312048	-287.347317	21.876
C         -0.02690        1.50330        0.03790
C         -0.05200        0.01840       -0.07160
C          0.56460       -0.98150       -1.09340
C         -0.45650       -2.03630       -0.64400
C          0.86000       -1.88880        0.07090
N          0.28330       -0.89870        1.08100
C         -1.03980       -1.01080        0.35750
H          1.00140        1.88190        0.02680
H         -0.57310        1.97180       -0.78850
H         -0.49150        1.81470        0.97870
H          1.05180       -0.86650       -2.05140
H         -0.87740       -2.86030       -1.20180
H          1.66740       -2.58090        0.27460
H         -1.98800       -0.93060        0.87680
