13
gdb 2003	6.46389	2.0966	2.07997	1.9161	61.1	-0.241	0.0143	0.2553	662.2897	0.100947	-307.209274	-307.203358	-307.202413	-307.238732	23.072
C         -0.01230       -1.11500       -0.05260
C         -0.00740        0.08620       -0.01050
C          0.01390        1.51490        0.07090
C         -0.67250        2.45590        1.10570
C         -0.08020        3.30750       -0.03930
C          1.22880        2.48920        0.02380
O         -0.61720        2.32700       -1.01320
H         -0.01830       -2.17630       -0.09630
H         -1.76030        2.39100        1.12430
H         -0.22320        2.52980        2.09880
H         -0.22600        4.36250       -0.26310
H          1.85110        2.56610        0.91840
H          1.80180        2.45340       -0.90270
