17
gdb 15054	2.85932	1.60881	1.09806	2.0902	70.83	-0.2497	0.0278	0.2775	1082.0556	0.140098	-363.778046	-363.769214	-363.76827	-363.811868	31.372
C         -1.31830       -0.52940        0.06090
O          0.07990       -0.71870       -0.02690
C          0.78040       -0.43500        1.17100
C          0.41140       -1.34650        2.26610
C          0.11450       -2.09670        3.15710
C          2.26150       -0.52630        0.85160
C          2.97940        0.68440        0.39290
N          3.24030        0.12180        1.73070
H         -1.56790        0.51080        0.32250
H         -1.72880       -0.75490       -0.92560
H         -1.77520       -1.19610        0.80400
H          0.55800        0.59900        1.49550
H         -0.14120       -2.75890        3.94750
H          2.56490       -1.50260        0.48350
H          3.80200        0.59420       -0.31000
H          2.41300        1.60890        0.31180
H          2.76290        0.67020        2.44310
