15
gdb 7228	4.77064	1.30732	1.03257	2.0758	66.23	-0.2476	-0.0634	0.1842	1089.4325	0.118755	-396.016701	-396.008317	-396.007373	-396.050056	29.275
C         -0.10740        1.68480        0.08480
C         -0.06370        0.18330        0.00310
O          0.96730       -0.45770       -0.03650
C         -1.39700       -0.54850       -0.03060
N         -2.48360        0.11290        0.01050
N         -1.20770       -1.92370       -0.10660
C         -2.17500       -2.89580       -0.15460
N         -3.42400       -2.63680       -0.13470
H          0.90930        2.07740        0.10570
H         -0.66070        2.08860       -0.76780
H         -0.66090        1.99440        0.97580
H         -3.28530       -0.52280       -0.02070
H         -0.23230       -2.19230       -0.12530
H         -1.74060       -3.90040       -0.21100
H         -3.96800       -3.49470       -0.17860
