12
gdb 23754	3.32147	2.36075	1.37995	1.6347	59.63	-0.2356	-0.025	0.2105	798.3671	0.085413	-422.689163	-422.683168	-422.682224	-422.719245	23.152
O          0.10320        1.34750        0.10320
C          0.07220        0.00260        0.04470
N          0.08900       -0.58780       -1.13780
C          0.05780       -1.92760       -1.18620
C          0.00870       -2.72590       -0.05550
C         -0.00910       -2.10040        1.19570
C          0.02300       -0.72460        1.24480
F          0.00810       -0.07260        2.40680
H          0.13470        1.65000       -0.81530
H          0.07340       -2.36680       -2.17940
H         -0.01520       -3.80550       -0.13860
H         -0.04710       -2.66340        2.12140
