12
gdb 17014	7.06954	1.37757	1.32728	2.3402	61.57	-0.2615	-0.0228	0.2387	883.1231	0.081628	-381.233722	-381.227001	-381.226057	-381.264617	25.053
C         -0.02200       -1.22660       -0.04280
C         -0.00710       -0.02580       -0.00740
C         -0.03390        1.41980       -0.00710
C          0.06600        2.13390        1.38010
O          1.49590        1.74490        1.44520
C          1.34380        2.15790        0.02870
C          0.60850        3.38760        0.63530
O          0.60430        4.57080        0.65230
H         -0.02350       -2.28840       -0.06310
H         -0.77610        1.82740       -0.70160
H         -0.54130        1.99780        2.27130
H          2.20180        2.04930       -0.62980
