20
gdb 8939	3.48056	1.19658	0.95642	3.0391	72.07	-0.2444	-0.0152	0.2292	1250.2458	0.173746	-386.15582	-386.145729	-386.144785	-386.191081	35.499
C          0.03350        1.60430       -0.11220
C          0.03530        0.07400       -0.05950
C         -1.37340       -0.51880        0.05630
O         -2.20820       -0.09640       -1.02390
C         -1.39350       -2.05730        0.15900
C         -0.83700       -2.59150        1.49130
C         -2.82950       -2.53320        0.00490
O         -3.19620       -3.37310       -0.77460
H          1.04530        1.99450       -0.25550
H         -0.59550        1.96080       -0.93160
H         -0.36040        2.02890        0.81770
H          0.50940       -0.33280       -0.96450
H          0.64500       -0.26790        0.78450
H         -1.86260       -0.10270        0.94790
H         -1.85850       -0.47980       -1.83700
H         -0.82510       -2.48710       -0.67600
H         -1.41970       -2.21510        2.33980
H         -0.87380       -3.68430        1.51540
H          0.20280       -2.28870        1.63830
H         -3.54300       -2.05450        0.71600
