20
gdb 17653	3.3238	1.67902	1.45634	1.6602	74.16	-0.2622	0.0854	0.3476	966.2785	0.176858	-348.975712	-348.967615	-348.966671	-349.007976	31.004
C          0.02340        1.65180        0.22110
C         -0.03520        0.13780        0.00610
C          0.88700       -0.35430       -1.15290
C          1.96500       -0.73900       -0.10500
C          0.88180       -0.64930        1.00180
C         -1.47550       -0.31500       -0.02910
C         -2.23510       -0.49140       -1.27270
O         -1.74910       -1.62140       -0.54130
H          1.05880        2.00010        0.29080
H         -0.45560        2.18730       -0.60630
H         -0.48520        1.94020        1.14870
H          0.46520       -1.23750       -1.63820
H          1.15880        0.38290       -1.91340
H          2.45890       -1.70400       -0.23640
H          2.73650        0.02790        0.00290
H          1.14700       -0.14150        1.93320
H          0.46020       -1.62920        1.24060
H         -2.04440       -0.07650        0.87350
H         -3.31690       -0.36630       -1.27470
H         -1.74540       -0.31400       -2.22920
