15
gdb 18942	6.6865	1.55186	1.48815	1.815	72.01	-0.2342	0.0292	0.2635	857.4276	0.118829	-325.38619	-325.379844	-325.3789	-325.416464	25.248
C         -0.06610       -1.27180       -0.10400
C         -0.05560       -0.07030       -0.05360
C         -0.05650        1.37550        0.02050
C         -0.03580        2.06880        1.38870
C          1.49080        1.78600        1.51100
C          1.85170        3.25030        1.77430
C          0.71470        3.27180        0.74970
N          1.32470        2.06120       -0.01330
H         -0.07300       -2.33260       -0.15520
H         -0.73390        1.80550       -0.72660
H         -0.79350        2.07540        2.17860
H          1.97110        0.87010        1.85390
H          1.62970        3.64450        2.76900
H          2.83080        3.57770        1.41520
H          0.28120        4.10550        0.19460
