16
gdb 19948	3.93447	1.48364	1.14113	1.463	65.52	-0.245	-0.0268	0.2182	1018.5429	0.129404	-383.72116	-383.713566	-383.712621	-383.754056	27.319
O         -0.15060       -0.03950        0.18680
C         -0.13080        1.15550        0.14990
C         -1.19650        2.25320        0.28930
C         -0.03630        3.26080        0.55080
C          1.01390        2.19730        0.09080
C          2.24090        1.93960        0.91670
C          3.42380        1.27130        0.36230
O          3.41850        2.68260        0.58520
H         -1.72120        2.42610       -0.65620
H         -1.94110        2.10120        1.07450
H         -0.05760        4.18700       -0.02310
H          0.06930        3.50490        1.61080
H          1.30910        2.35730       -0.95300
H          2.06590        1.84770        1.99010
H          4.07270        0.69350        1.01810
H          3.42380        0.96130       -0.68170
