23
gdb 15829	3.10758	1.23972	0.94127	0.9836	82.8	-0.2293	0.0895	0.3187	1323.5289	0.21078	-330.306225	-330.296551	-330.295607	-330.340655	35.633
C          0.05210        1.52520        0.05480
C          0.02970       -0.00510       -0.00820
C         -1.39570       -0.56800       -0.02740
C         -1.51400       -2.09920        0.00140
C         -2.98200       -2.52500        0.09080
N         -0.92740       -2.67820       -1.21250
C          0.47560       -3.07570       -1.16250
C         -0.60220       -4.09990       -1.16350
H          1.07650        1.91080        0.06380
H         -0.46040        1.96330       -0.80900
H         -0.45060        1.89300        0.95650
H          0.57020       -0.33840       -0.90050
H          0.57350       -0.41310        0.85470
H         -1.94410       -0.17310        0.83860
H         -1.91920       -0.20250       -0.92050
H         -0.98570       -2.47560        0.90020
H         -3.53440       -2.17080       -0.78520
H         -3.07640       -3.61420        0.13140
H         -3.45140       -2.11020        0.98800
H          1.05820       -2.88010       -2.05860
H          1.01650       -2.93170       -0.22860
H         -0.77400       -4.63310       -0.22910
H         -0.82730       -4.67150       -2.05940
