14
gdb 8751	4.34477	1.43561	1.08635	1.5439	69.69	-0.2548	-0.0678	0.187	1015.922	0.107522	-374.91492	-374.90656	-374.905616	-374.948506	28.556
C          0.00060        1.46090        0.00590
N          0.01660       -0.00070       -0.00540
C          0.09210       -0.65300        1.22320
N          0.14390        0.02360        2.29860
C         -0.03900       -0.75100       -1.16730
N         -0.02440       -2.03030       -1.16940
C         -0.11630        0.00190       -2.40920
N         -0.17950        0.50980       -3.44640
H          0.90730        1.83720        0.48510
H         -0.06050        1.83710       -1.01380
H         -0.85580        1.81700        0.58330
H          0.09890       -1.73720        1.12170
H          0.19540       -0.60180        3.10050
H         -0.07250       -2.39780       -2.11550
