15
gdb 10246	2.56328	1.97417	1.41779	4.3223	67.73	-0.2447	-0.0216	0.2231	919.532	0.117148	-396.001656	-395.992915	-395.991971	-396.035767	29.856
C         -0.82310        1.01670        0.45940
C          0.33680        0.18820       -0.00300
O          1.41240        0.11210        0.50130
N          0.04780       -0.60160       -1.23110
C         -0.48410       -1.86810       -1.09660
N         -0.80030       -2.33260        0.04370
C          0.29030       -0.02730       -2.46250
N          0.67650        1.17970       -2.56230
H         -1.10600        1.70940       -0.33940
H         -1.67250        0.35720        0.66280
H         -0.54980        1.56880        1.35860
H         -0.59450       -2.38260       -2.05890
H         -1.17010       -3.27600       -0.04010
H          0.10590       -0.71930       -3.29320
H          0.81190        1.43660       -3.53680
