18
gdb 19788	3.00785	2.62071	1.84353	2.2244	70.2	-0.2189	0.0718	0.2907	786.5393	0.156417	-343.935324	-343.9287	-343.927756	-343.965658	27.023
C         -0.03580        1.57620       -0.04930
C          0.03070        0.05150       -0.01750
C          0.65100       -0.60020       -1.25520
N          2.06400       -0.24120       -1.48440
C          1.73000       -1.51090       -0.79780
C          1.78170       -1.43110        0.71160
C          2.18140       -0.13420        1.31670
N          0.75560       -0.47370        1.17330
H          0.94910        2.00670       -0.24570
H         -0.71560        1.91290       -0.83870
H         -0.40470        1.96060        0.90570
H         -0.99040       -0.34250        0.07160
H          0.01860       -0.82630       -2.10960
H          2.31220       -0.43410       -2.45180
H          1.94900       -2.45240       -1.28920
H          1.87000       -2.36660        1.25740
H          2.52190       -0.09850        2.34850
H          2.62980        0.59260        0.64900
