20
gdb 5937	3.63388	1.06285	1.0139	0.977	80.66	-0.2396	0.0536	0.2932	1310.0049	0.17253	-348.974044	-348.963283	-348.962339	-349.011385	37.015
C          0.10000        1.38260        0.10630
O         -0.02180       -0.02250        0.08890
C         -1.34820       -0.57180        0.00370
C         -2.19980       -0.17380        1.22720
C         -2.04500       -0.15490       -1.30820
C         -1.15140       -2.02820        0.00480
C         -1.02970       -3.22540        0.00330
C         -0.86280       -4.67170        0.00270
H          1.17090        1.59130        0.17370
H         -0.28460        1.85760       -0.80700
H         -0.39410        1.84500        0.97220
H         -2.42520        0.89660        1.22320
H         -3.14760       -0.71780        1.21470
H         -1.66810       -0.42250        2.14880
H         -1.40490       -0.39020       -2.16180
H         -2.98670       -0.69820       -1.41920
H         -2.27030        0.91550       -1.31560
H         -1.37880       -5.13430        0.85130
H         -1.26200       -5.12010       -0.91390
H          0.19600       -4.94460        0.07060
