16
gdb 19131	2.78362	2.11597	1.48238	2.8454	70.1	-0.2593	0.0224	0.2817	884.8606	0.130576	-342.750418	-342.742872	-342.741928	-342.78234	28.144
N          0.10600       -1.19060        0.06000
C          0.09050       -0.03290        0.06460
C          0.00400        1.41230        0.02590
C          0.47480        2.17850        1.24970
C          1.30540        2.19480        0.00130
N         -1.09290        2.00540       -0.69610
C         -1.57280        1.36310       -1.91900
C         -2.39830        1.34680       -0.67840
H         -0.10950        3.05990        1.48370
H          0.82500        1.60620        2.10020
H          2.23190        1.63380       -0.01450
H          1.28480        3.08720       -0.61200
H         -1.80850        2.04150       -2.73320
H         -1.11870        0.42090       -2.21660
H         -2.48590        0.39380       -0.16200
H         -3.24850        2.01300       -0.56920
