20
gdb 8109	2.95445	1.87839	1.44419	1.4487	75.5	-0.242	0.074	0.316	962.9712	0.176358	-348.980547	-348.972008	-348.971064	-349.012796	32.837
C         -0.08040        1.59090        0.07640
C          0.08620        0.08420        0.09660
C          1.35000       -0.68140       -0.22160
C          2.60060       -0.04510        0.36390
O          3.00590        1.16130       -0.25470
C          1.92880       -0.00630        1.77950
C          0.71280       -0.73850        1.18830
C          0.01340       -1.87760        1.87450
H          0.82130        2.11130        0.39850
H         -0.30070        1.93290       -0.94080
H         -0.91460        1.89860        0.71810
H         -0.77680       -0.43420       -0.32220
H          1.36390       -1.44160       -0.99500
H          3.42760       -0.76820        0.36430
H          3.82080        1.45370        0.16620
H          2.47320       -0.60010        2.51890
H          1.74210        0.98840        2.19530
H         -0.57670       -1.52500        2.72980
H         -0.67190       -2.39160        1.19240
H          0.72820       -2.61820        2.25290
