16
gdb 20912	3.31585	1.96118	1.34765	3.6554	66.2	-0.2228	0.027	0.2499	917.1566	0.133066	-376.135248	-376.127504	-376.126559	-376.167832	27.962
C          0.04960        1.56490       -0.05440
C          0.01620        0.03870        0.04700
N          0.67590       -0.46380        1.23700
N          2.04000       -0.59310        1.28450
C          2.22810       -1.08280        2.49340
N          1.10370       -1.26360        3.24210
C          0.15020       -0.85810        2.41880
N         -1.21170       -0.90150        2.67390
H          1.08350        1.91890       -0.05070
H         -0.42900        1.89340       -0.98190
H         -0.47450        2.03300        0.78520
H         -1.01140       -0.33820        0.06140
H          0.52080       -0.41090       -0.81220
H          3.21680       -1.31870        2.85880
H         -1.37830       -1.16030        3.63750
H         -1.71270       -0.05470        2.43940
