14
gdb 3004	6.30379	1.91604	1.56163	2.2184	55.3	-0.2574	0.0324	0.2898	784.5381	0.112985	-361.717972	-361.710635	-361.709691	-361.749881	24.717
C          0.03140        1.23730        0.15180
O         -0.03480       -0.15070       -0.19070
C         -1.27140       -0.68710       -0.12840
O         -2.26410       -0.09060        0.21020
N         -1.24160       -2.00110       -0.57870
C         -0.45580       -3.04340        0.05780
C         -1.95360       -3.04740        0.12130
H          1.08240        1.51310        0.06210
H         -0.57860        1.83370       -0.53150
H         -0.32180        1.40400        1.17270
H          0.06730       -3.71590       -0.61570
H          0.08780       -2.78330        0.96180
H         -2.42500       -2.78220        1.06360
H         -2.52280       -3.72740       -0.50540
