17
gdb 7267	4.41161	1.21728	0.96627	3.0971	70.93	-0.2416	0.0085	0.2501	1186.9921	0.141873	-397.220994	-397.211566	-397.210622	-397.255901	31.748
C          0.32910        1.42250        0.37520
N          0.02540        0.04920        0.00550
C          1.13660       -0.82010       -0.33980
C         -1.27020       -0.38860        0.13720
O         -2.20250        0.33600        0.44380
N         -1.45950       -1.74760       -0.11540
C         -2.70360       -2.34650       -0.05380
N         -2.82040       -3.59560       -0.26280
H          0.83870        1.93820       -0.44690
H         -0.60930        1.92910        0.59310
H          0.97410        1.46220        1.26260
H          1.41540       -1.50340        0.47510
H          0.92550       -1.40950       -1.23900
H          2.00660       -0.19980       -0.56300
H         -0.69080       -2.36830       -0.31280
H         -3.49180       -1.63010        0.18240
H         -3.79620       -3.87380       -0.18150
