17
gdb 8557	2.97022	2.64941	1.71861	1.1978	67.76	-0.2184	0.0654	0.2838	795.8652	0.142244	-363.782144	-363.775048	-363.774104	-363.812836	28.26
C         -0.04930        1.47000        0.08180
C          0.05500       -0.02310        0.01360
C          0.88390       -0.90220       -0.90540
N          0.03380       -2.09140       -0.48970
C          0.43950       -2.25300        0.96540
C         -0.23240       -0.91980        1.23830
O         -0.55940       -0.31850        2.43470
C         -1.03410       -1.07450       -0.02990
H          0.90350        1.91480        0.39160
H         -0.31770        1.89550       -0.89130
H         -0.80470        1.77360        0.81190
H          0.71530       -0.68850       -1.96520
H          1.95850       -1.02320       -0.72180
H         -0.10200       -3.10010        1.39910
H          1.51550       -2.37590        1.13400
H         -1.20850       -0.86930        2.88630
H         -2.08240       -1.08580       -0.29400
