18
gdb 7905	3.38424	1.67892	1.2083	3.2273	75.67	-0.2341	-0.0372	0.1969	1029.1378	0.153275	-347.858893	-347.850573	-347.849629	-347.891952	30.373
C         -0.05120        1.61230       -0.05100
C          0.02170        0.07890        0.01200
C          0.73050       -0.57350       -1.19590
C          1.84780       -1.43930       -0.59970
O          2.60920       -2.15240       -1.21340
C          1.82880       -1.24530        0.87530
C          2.82120       -1.92760        1.75880
C          0.82410       -0.41780        1.19390
H          0.95020        2.04560       -0.14750
H         -0.64710        1.93920       -0.90880
H         -0.51000        2.02460        0.85390
H         -1.00620       -0.30030        0.09810
H          0.07000       -1.19150       -1.81060
H          1.17590        0.17170       -1.86370
H          3.84210       -1.63870        1.48580
H          2.65980       -1.69080        2.81330
H          2.76700       -3.01390        1.62860
H          0.58020       -0.10440        2.20580
