20
gdb 9386	5.34707	0.85625	0.76984	1.0076	78.7	-0.2561	0.0571	0.3131	1508.4501	0.173754	-348.971059	-348.960948	-348.960003	-349.006507	35.536
C          0.01490        1.50680        0.06660
C          0.01720       -0.01160        0.01970
O          0.69080       -0.49720        1.16400
C          0.75230       -1.90320        1.22300
C          1.47840       -2.29770        2.52040
C          0.71910       -1.80710        3.76810
C          1.69070       -3.74280        2.55010
C          1.83970       -4.93560        2.56930
H          1.03850        1.89170        0.07870
H         -0.49950        1.91440       -0.80880
H         -0.49550        1.86220        0.96630
H         -1.01470       -0.40090       -0.00610
H          0.51820       -0.37060       -0.89520
H         -0.25950       -2.34260        1.21480
H          1.29390       -2.30800        0.35350
H          2.45760       -1.80090        2.49480
H          0.56460       -0.72830        3.70270
H         -0.25680       -2.29750        3.83960
H          1.28050       -2.03460        4.67770
H          1.98470       -5.98720        2.59090
