18
gdb 14560	3.44593	1.70467	1.44283	2.0092	67.21	-0.2367	0.0582	0.295	926.1892	0.153921	-384.896781	-384.889051	-384.888107	-384.928491	30.258
O          0.20860        0.86700        0.80290
C         -0.08350        0.29160       -0.47470
C         -1.44490       -0.36070       -0.43430
O         -2.43110        0.54720       -0.01480
C         -1.99240       -1.34400       -1.41320
C         -0.93120       -2.32210       -1.93010
C         -0.63680       -2.76780       -0.45840
C         -1.69670       -1.77960        0.04210
H          0.31770        0.13880        1.42490
H         -0.09660        1.13210       -1.17570
H          0.70350       -0.40360       -0.78850
H         -2.02970        1.03150        0.71920
H         -2.95150       -1.14350       -1.87550
H         -1.36760       -3.13130       -2.51910
H         -0.10140       -1.89510       -2.50240
H         -0.91850       -3.80860       -0.28450
H          0.38570       -2.63000       -0.08880
H         -2.40480       -1.94890        0.84410
