18
gdb 19208	2.60714	2.56523	2.49379	1.1405	65.84	-0.2402	0.0766	0.3168	739.0754	0.15765	-384.947598	-384.941271	-384.940327	-384.977961	25.368
C         -0.03690        1.55030       -0.00850
C          1.43160        2.06100        0.01790
C          2.34510        0.82750        0.02150
C          2.03170       -0.05140        1.23320
O          0.64830       -0.42460        1.21040
C          0.01180        0.01630        0.00880
C          0.80850       -0.49490       -1.19250
O          2.12500        0.07080       -1.17110
H         -0.59780        1.89700        0.86330
H         -0.56780        1.89900       -0.90030
H          1.66060        2.66920       -0.86110
H          1.62750        2.67580        0.90250
H          3.40260        1.10360        0.01270
H          2.65310       -0.95660        1.20850
H          2.23950        0.48380        2.16970
H         -0.98910       -0.42300        0.01890
H          0.88230       -1.59000       -1.15290
H          0.31790       -0.21660       -2.13520
