13
gdb 11156	6.60101	1.31256	1.10246	3.2492	75.17	-0.2448	-0.0615	0.1833	999.0942	0.095785	-361.456419	-361.449522	-361.448578	-361.48752	25.761
N         -0.00150        1.31090        0.01080
C         -0.02670        0.04540        0.00360
O          1.08430       -0.77040       -0.00740
C          0.68150       -2.13700       -0.01340
C         -0.83280       -2.09720       -0.00480
C         -1.21470       -0.80980        0.00460
C         -1.61870       -3.26640       -0.00760
C         -2.24950       -4.29280       -0.01030
H          0.96100        1.65160        0.00760
H          1.07780       -2.63460       -0.90720
H          1.08750       -2.64520        0.87000
H         -2.21910       -0.41590        0.01220
H         -2.82040       -5.18860       -0.01230
