17
gdb 19064	5.29736	1.73461	1.7161	2.7429	68.22	-0.2167	0.0811	0.2978	829.8127	0.14344	-363.783061	-363.776788	-363.775844	-363.813062	25.69
C         -0.09870        1.40300       -0.02120
N          0.03430       -0.04820        0.03550
C          1.39930       -0.53820       -0.19080
C          0.81680       -0.53820        1.17670
C          0.71630       -2.07320        1.38690
C          2.12910       -2.53850        0.92800
C          1.48130       -2.07330       -0.40880
O          0.20780       -2.54200        0.10950
H          0.78200        1.95350        0.35400
H         -0.27270        1.70440       -1.05890
H         -0.96760        1.70450        0.57210
H          2.18390        0.13600       -0.51610
H          1.12570        0.13610        1.96780
H          0.19170       -2.47100        2.25450
H          3.01120       -2.01140        1.30380
H          2.24700       -3.62180        0.97830
H          1.74350       -2.47110       -1.38820
