10
gdb 1015	9.3393	2.06141	1.68868	5.4748	56.52	-0.2529	-0.0417	0.2111	661.5936	0.06991	-318.406529	-318.401195	-318.400251	-318.435662	19.197
N          0.11300       -1.12050       -0.00510
C          0.00640        0.03230        0.00280
C         -0.06800        1.44910        0.01180
N         -1.16640        2.18290        0.03010
C         -0.73400        3.47790        0.03190
C          0.64150        3.53340        0.01460
N          1.05730        2.23160        0.00170
H         -1.43030        4.30190        0.04560
H          1.33810        4.35500        0.01040
H          2.00870        1.90070       -0.01260
