10
gdb 21984	5.66261	1.71065	1.31377	3.906	51.9	-0.3011	-0.0935	0.2076	810.3158	0.062545	-446.688362	-446.682482	-446.681538	-446.719094	20.4
O         -0.08380        0.01820        0.00390
N         -0.02310        1.24340        0.00700
O          0.99210        1.91700        0.00240
C         -1.29950        1.92470        0.01720
N         -1.39260        3.25070        0.02150
N         -2.69640        3.43050        0.03050
N         -3.46340        2.34130        0.03230
C         -2.57790        1.34850        0.02390
H         -3.09700        4.35670        0.03570
H         -2.86770        0.31220        0.02280
