19
gdb 12240	3.59649	1.46885	1.12343	3.8258	73.42	-0.2383	0.0395	0.2778	1092.546	0.164807	-365.096011	-365.087094	-365.08615	-365.129707	31.704
C          0.09520        1.57860        0.05930
C          0.03840        0.05850       -0.12550
C         -1.35730       -0.53910        0.02610
C         -1.47310       -2.09150       -0.04770
C         -2.07560       -2.00230        1.36970
O         -2.55420       -2.76390        2.17060
N         -1.89330       -0.64060        1.39850
C         -2.38530        0.33030        2.34340
H          1.10800        1.95610       -0.11020
H         -0.57100        2.08760       -0.64610
H         -0.20180        1.87560        1.06960
H          0.40020       -0.19750       -1.12980
H          0.71170       -0.43620        0.58560
H         -2.06010       -0.02700       -0.64690
H         -2.15830       -2.48180       -0.80230
H         -0.52130       -2.62410       -0.10480
H         -2.93340       -0.21640        3.11530
H         -1.57680        0.89290        2.82350
H         -3.06690        1.04360        1.86310
