19
gdb 12475	3.30679	1.85043	1.30807	3.3335	72.65	-0.2501	0.0264	0.2766	963.9435	0.168217	-365.080431	-365.072859	-365.071915	-365.112436	28.893
N         -0.07670        1.33590        0.30590
C         -0.02660        0.10970       -0.01670
C         -1.30870       -0.69090       -0.10920
C         -1.50620       -1.48830       -1.41160
C         -0.82070       -2.86470       -1.40650
C          0.58260       -2.85920       -0.77220
C          1.40560       -1.60610       -1.07050
O          1.18540       -0.50330       -0.17980
H          0.87190        1.71710        0.34130
H         -1.35980       -1.37180        0.75120
H         -2.10840        0.03990        0.01830
H         -2.57900       -1.62550       -1.58190
H         -1.14810       -0.88790       -2.25620
H         -1.44700       -3.58430       -0.86630
H         -0.75720       -3.23220       -2.43740
H          0.52170       -2.96260        0.31700
H          1.14440       -3.73090       -1.12690
H          2.46950       -1.81970       -0.94160
H          1.26130       -1.27450       -2.10800
