17
gdb 6180	3.84856	1.59768	1.49402	4.3614	70.78	-0.2402	-0.0254	0.2149	922.1938	0.141995	-363.920944	-363.912984	-363.91204	-363.953178	30.213
C         -0.04260        1.55740        0.01280
C         -0.02650        0.01580        0.00780
C         -1.46400       -0.54030       -0.02860
N          0.77350       -0.50440       -1.09170
C          1.86280       -1.25070       -0.69820
O          2.67390       -1.78730       -1.42330
C          1.80300       -1.23990        0.79750
C          0.74650       -0.53130        1.19270
H          0.97600        1.95260        0.02830
H         -0.54940        1.93690       -0.88090
H         -0.57920        1.93750        0.88800
H         -1.98790       -0.18610       -0.92280
H         -1.45340       -1.63290       -0.04250
H         -2.03190       -0.20650        0.84560
H          0.56510       -0.34580       -2.06330
H          2.53730       -1.74970        1.40470
H          0.42620       -0.33420        2.20860
