19
gdb 1351	3.95366	2.28628	2.17199	1.4135	66.79	-0.2381	0.0787	0.3168	749.0613	0.171716	-310.94019	-310.932627	-310.931683	-310.971715	28.7
C         -0.01960        1.54940        0.02260
C         -0.00230        0.01840       -0.03520
C         -1.42130       -0.54970        0.04940
C          0.77650       -0.51230       -1.26850
C          2.16940       -0.83140       -0.70640
C          1.81630       -1.27820        0.71280
O          0.74390       -0.44060        1.11620
H          0.99050        1.95410       -0.09280
H         -0.65230        1.96650       -0.76810
H         -0.40820        1.88380        0.98890
H         -2.01660       -0.25020       -0.82020
H         -1.39500       -1.64310        0.08590
H         -1.92610       -0.19020        0.95110
H          0.30540       -1.42540       -1.64810
H          0.79450        0.21340       -2.08530
H          2.70380       -1.59420       -1.27850
H          2.79320        0.06810       -0.67440
H          1.51220       -2.33850        0.72120
H          2.63290       -1.15810        1.43190
