18
gdb 13823	4.2561	1.43826	1.10932	3.0101	75.74	-0.2382	-0.0437	0.1945	1077.5634	0.153739	-347.847185	-347.839074	-347.83813	-347.880168	29.513
C         -0.00980        1.49880        0.02020
C          0.11980       -0.01460        0.02260
O          0.33270       -0.62790        1.05060
C         -0.02270       -0.71040       -1.28500
C          0.01140       -2.04450       -1.40830
C         -0.20630       -2.50020       -2.82370
C         -0.05980       -1.19140       -3.64300
C         -0.27870       -0.04160       -2.62500
H          0.77910        1.94910       -0.59350
H         -0.96530        1.80690       -0.41930
H          0.06570        1.87270        1.04160
H          0.14480       -2.71640       -0.56840
H          0.49920       -3.27930       -3.13370
H         -1.20800       -2.94290       -2.92630
H          0.95580       -1.12990       -4.04610
H         -0.74650       -1.14170       -4.49130
H         -1.30450        0.35050       -2.67150
H          0.38180        0.81050       -2.81740
