17
gdb 2348	5.28659	1.8222	1.57619	2.635	64.78	-0.2389	-0.0093	0.2295	836.4733	0.147702	-309.732528	-309.724906	-309.723961	-309.765172	27.004
C         -0.28030        1.57440       -0.16790
C          0.09320        0.12820        0.10600
O          1.23270       -0.20360        0.34780
C         -1.03180       -0.88290        0.01670
C         -1.25610       -1.51580       -1.40440
C         -1.44140       -2.89340       -0.71490
C         -0.77920       -2.31060        0.56140
H          0.61730        2.19000       -0.23670
H         -0.86470        1.65610       -1.09130
H         -0.91700        1.94900        0.64260
H         -1.96550       -0.44720        0.38640
H         -2.08280       -1.12330       -2.00060
H         -0.33970       -1.47800       -2.00000
H         -2.49840       -3.12720       -0.55920
H         -0.96210       -3.75500       -1.18500
H          0.29510       -2.50370        0.60210
H         -1.22450       -2.56220        1.52620
