17
gdb 9805	3.25363	1.60155	1.40555	3.6235	64.74	-0.246	-0.0331	0.2129	950.8542	0.140356	-400.97818	-400.969712	-400.968768	-401.01128	30.956
C         -0.15800        1.54690       -0.47150
C         -0.00520        0.09960       -0.04970
C          0.95370       -0.76970       -0.77480
N          1.23950       -0.33930        0.60780
C         -1.27030       -0.54790        0.54590
O         -1.26080       -1.94330        0.47480
C         -1.42390       -0.11230        1.99480
O         -1.50380       -0.91560        2.89090
H          0.77320        1.91980       -0.90920
H         -0.94830        1.65840       -1.22220
H         -0.41050        2.19880        0.37300
H          0.73370       -1.82530       -0.87950
H          1.51980       -0.32060       -1.58740
H          1.91920        0.41770        0.60440
H         -2.13900       -0.15070       -0.00920
H         -1.24940       -2.25040        1.39570
H         -1.45070        0.97810        2.18980
