19
gdb 6523	2.7467	1.96367	1.38722	2.3083	73.38	-0.2478	-0.034	0.2138	964.9242	0.162756	-365.063781	-365.0545	-365.053555	-365.09711	33.876
C         -0.06960        1.46630       -0.07740
C          0.01210       -0.04500        0.05080
C         -1.17030       -0.75380       -0.58430
N          1.35330       -0.60890       -0.09150
C          0.74320       -0.64660        1.25010
C          1.36810        0.19460        2.34720
C          0.29030       -1.98660        1.72680
O          0.23370       -2.98140        1.03960
H          0.85950        1.95420        0.21660
H         -0.26220        1.73070       -1.12310
H         -0.89140        1.86990        0.52360
H         -1.18050       -0.54180       -1.65970
H         -1.13170       -1.83470       -0.45150
H         -2.11420       -0.38170       -0.17090
H          1.29040       -1.55350       -0.47620
H          1.67900        1.17170        1.98070
H          0.66270        0.34610        3.17200
H          2.25650       -0.30270        2.75180
H          0.01910       -2.02600        2.80450
