20
gdb 10329	2.41314	1.59378	1.0261	2.9892	71.62	-0.2454	-0.0178	0.2276	1168.7855	0.17399	-386.149281	-386.139258	-386.138314	-386.18448	35.344
C         -0.12330        1.53070       -0.06650
C          0.04150        0.00390       -0.01750
C          0.79790       -0.48960       -1.26020
C          0.73780       -0.47510        1.28540
C          0.07670        0.05810        2.56760
O          0.55860       -0.60030        3.72970
C          0.71230       -1.99350        1.35350
O          1.67200       -2.71130        1.24680
H          0.84770        2.03330        0.01580
H         -0.56970        1.83080       -1.01990
H         -0.76790        1.90930        0.73130
H         -0.96420       -0.44230       -0.03020
H          1.79820       -0.04410       -1.30760
H          0.92270       -1.57590       -1.26400
H          0.26330       -0.20660       -2.17240
H          1.79310       -0.17070        1.26170
H          0.20580        1.14570        2.64150
H         -1.00120       -0.14200        2.54460
H          1.51190       -0.47030        3.77520
H         -0.31020       -2.41700        1.49830
