18
gdb 20062	4.67893	1.46063	1.30132	1.6971	72.77	-0.2399	0.0243	0.2642	985.7615	0.15491	-347.790329	-347.782972	-347.782028	-347.822813	27.475
C          0.20720        1.44500       -0.06330
O          1.06380        0.34750       -0.38660
C         -0.27680        0.06120        0.01870
C         -0.46820       -0.71490        1.30600
C         -0.07510       -2.21370        1.14740
C          0.51560       -2.63990        2.51380
C          0.88900       -1.32040        3.14500
C          0.36690       -0.28380        2.49410
H          0.46980        1.98860        0.84190
H         -0.09080        2.07050       -0.90430
H         -0.91190       -0.28440       -0.80100
H         -1.53710       -0.62850        1.56200
H         -0.91350       -2.83820        0.82860
H          0.70260       -2.28500        0.38050
H         -0.22410       -3.16700        3.13350
H          1.36710       -3.32140        2.40820
H          1.48090       -1.25200        4.05130
H          0.46500        0.75220        2.79730
