20
gdb 13281	7.18181	0.806	0.76652	2.2666	72.29	-0.2456	0.0727	0.3184	1524.7425	0.175808	-386.110764	-386.101633	-386.100689	-386.145822	31.579
C          0.15380        1.50290        0.11760
C         -0.12700        0.02300       -0.15350
C          0.77560       -0.55060       -1.23660
O          0.45070       -1.91720       -1.42290
C          1.19780       -2.54250       -2.42480
C          2.62160       -3.04550       -2.07210
O          2.25910       -4.39800       -2.41930
C          0.87260       -4.03460       -2.58800
H          1.18650        1.66010        0.44790
H         -0.00280        2.11100       -0.78030
H         -0.50610        1.89040        0.89900
H          0.01160       -0.56470        0.76110
H         -1.16970       -0.11780       -0.46020
H          0.64260        0.00140       -2.18320
H          1.83450       -0.44250       -0.94720
H          1.15900       -1.96610       -3.36030
H          3.45690       -2.67660       -2.67820
H          2.86210       -2.93910       -1.00560
H          0.23730       -4.41380       -1.77770
H          0.47400       -4.36090       -3.55470
