15
gdb 12151	3.70281	1.46265	1.13436	2.0891	66.7	-0.2622	-0.0405	0.2217	1013.269	0.117663	-362.690879	-362.682934	-362.68199	-362.723611	28.312
C          0.06090        1.66900        0.02680
C          0.09320        0.15010       -0.03060
C          0.77410       -0.57390       -1.25390
C          1.52080       -1.54160       -0.27250
C          1.08980       -0.60510        0.86830
O          1.45440       -0.44900        1.99490
C         -0.10620       -1.17340       -2.23950
N         -0.82050       -1.65570       -3.01040
H          1.05310        2.09340       -0.15690
H         -0.63090        2.07780       -0.71540
H         -0.26460        1.99840        1.01750
H         -0.90800       -0.26840        0.12940
H          1.47740        0.09630       -1.75550
H          1.04250       -2.52250       -0.19900
H          2.59320       -1.67800       -0.42300
