21
gdb 15420	5.41753	0.93926	0.87143	2.0353	75.87	-0.2275	0.088	0.3155	1387.5914	0.187848	-366.228225	-366.21877	-366.217826	-366.263269	33.999
C          0.33550       -2.79690        0.17450
C         -0.06550       -1.47090        0.83230
C         -1.54930       -1.19900        0.68170
C         -2.52640       -1.62650        1.72060
N         -2.26910       -0.20460        1.48080
C         -1.56350        0.54890        2.51730
C         -2.56770        1.43340        3.25550
O         -3.61190        0.67920        3.84580
H          1.41210       -2.97090        0.26120
H         -0.18270       -3.64060        0.64170
H          0.08200       -2.80150       -0.89130
H          0.21350       -1.48720        1.89070
H          0.50120       -0.65010        0.37290
H         -1.88540       -1.21630       -0.35590
H         -3.51410       -1.99070        1.44760
H         -2.12140       -2.06200        2.63350
H         -1.05050       -0.09930        3.24480
H         -0.80710        1.18600        2.04200
H         -2.06560        1.96370        4.07200
H         -2.96620        2.18460        2.55710
H         -4.08030        0.25590        3.11820
