11
gdb 2558	3.73699	2.5993	1.72092	4.8295	58.	-0.2705	-0.0122	0.2584	696.7262	0.077695	-302.238859	-302.232243	-302.231299	-302.269255	23.833
C          0.01860       -1.16660       -0.01060
C         -0.01460        0.03400        0.01810
C         -0.02980        1.47300        0.04050
C          0.52750        2.18000        1.25040
N          1.26010        2.21560       -0.00630
C         -1.11140        2.09910       -0.69670
N         -1.98870        2.59330       -1.26280
H          0.03850       -2.22860       -0.03660
H          0.07720        3.12200        1.54690
H          0.87100        1.54190        2.05890
H          2.01720        1.53550       -0.00470
