15
gdb 8469	2.9556	2.13555	1.59611	3.5403	61.75	-0.2418	0.0047	0.2465	838.3515	0.118313	-399.799033	-399.791422	-399.790478	-399.83059	28.534
C         -0.13750        1.48770        0.09070
C          0.04550        0.01120        0.04880
C          1.19350       -0.79940       -0.42960
C          0.68120       -0.98430        1.01110
N          1.53910       -0.79190        2.11720
C         -0.65490       -1.69050        0.91920
O         -1.22860       -2.58030        1.45930
O         -1.15300       -0.82580       -0.05070
H          0.80540        1.96750        0.36780
H         -0.44680        1.87560       -0.88540
H         -0.89970        1.76110        0.82630
H          1.04320       -1.57380       -1.17490
H          2.15390       -0.29310       -0.45920
H          1.01590       -0.69030        2.98050
H          2.17710       -1.57260        2.23370
