14
gdb 4385	3.61574	2.02122	1.30697	4.5242	68.8	-0.2303	-0.0537	0.1766	888.3413	0.107709	-382.612683	-382.605818	-382.604874	-382.643764	25.633
C          0.06840        1.48430        0.02290
C         -0.07370       -0.00210        0.00270
C         -1.22760       -0.69430       -0.15370
C         -1.17240       -2.12020       -0.14720
C          0.00760       -2.76880        0.01190
C          1.24550       -2.03980        0.17970
O          2.35340       -2.47790        0.32920
O          1.10590       -0.63180        0.16170
H          0.74320        1.81360       -0.77440
H         -0.90050        1.96880       -0.10800
H          0.50690        1.81240        0.97130
H         -2.16240       -0.16570       -0.27960
H         -2.09050       -2.68630       -0.27160
H          0.08840       -3.84790        0.02210
