16
gdb 13160	3.44238	1.75241	1.18829	3.5397	69.19	-0.2276	-0.0564	0.1712	978.523	0.13065	-379.915071	-379.907036	-379.906092	-379.948615	27.703
N          0.09970        1.44290        0.58800
C          0.08610        0.18760        0.29740
C         -1.27420       -0.45360        0.34580
O         -1.50250       -1.61320        0.10540
N          1.13440       -0.60820       -0.02220
C          1.27040       -1.97680       -0.54750
C          2.78400       -1.68980       -0.75990
C          2.52580       -0.23790       -0.26420
H          1.04350        1.83250        0.54170
H         -2.05780        0.27480        0.63060
H          1.02430       -2.75810        0.17580
H          0.69660       -2.16030       -1.46040
H          3.44660       -2.26930       -0.11660
H          3.12910       -1.76750       -1.79090
H          2.64570        0.54470       -1.02540
H          3.07140        0.06720        0.63700
