19
gdb 7142	5.7376	0.88614	0.8328	2.3231	70.15	-0.247	0.0654	0.3124	1456.9584	0.164069	-402.254154	-402.244276	-402.243332	-402.290527	33.561
C          0.47690        1.24670        0.08020
C         -0.45780        0.09790       -0.30830
N         -0.00200       -0.65280       -1.46480
C          0.69100       -1.81840       -1.34180
O          0.89010       -2.41860       -0.30770
O          1.11990       -2.22920       -2.56370
C          1.84120       -3.47180       -2.56930
C          2.24130       -3.76060       -4.00390
H          1.47020        0.86470        0.33280
H          0.58490        1.96630       -0.73870
H          0.08300        1.78370        0.94930
H         -0.53690       -0.61980        0.51110
H         -1.46460        0.48030       -0.51290
H         -0.00500       -0.21850       -2.37330
H          2.71300       -3.38490       -1.91300
H          1.20230       -4.26050       -2.15890
H          1.35980       -3.84550       -4.64590
H          2.87890       -2.96480       -4.39960
H          2.79550       -4.70260       -4.05280
