16
gdb 4834	4.73063	1.40483	1.15552	1.97	68.28	-0.1993	0.0314	0.2307	1042.3758	0.131796	-379.967938	-379.960138	-379.959194	-380.000257	28.646
C          0.23960        1.54140       -0.07910
C         -0.03330        0.03640        0.09040
C          0.56880       -0.54630        1.31680
C          0.10860       -1.13020        2.44410
N          1.16910       -1.49880        3.27470
C          2.21340       -1.10970        2.61360
N          3.53010       -1.15760        3.00520
O          1.95840       -0.52600        1.42140
H          1.31440        1.73810       -0.12360
H         -0.21380        1.91550       -1.00200
H         -0.17130        2.10870        0.76130
H         -1.11190       -0.14730        0.13630
H          0.33490       -0.49900       -0.79530
H         -0.91590       -1.32340        2.72220
H          3.68420       -1.81520        3.75550
H          4.19000       -1.25630        2.24730
