16
gdb 4575	5.63823	1.49982	1.19478	2.7228	76.66	-0.2052	-0.0122	0.193	991.7154	0.132453	-342.852486	-342.84499	-342.844045	-342.884484	28.187
C         -0.02810        1.51210       -0.00950
C         -0.01460        0.00540        0.02840
N         -0.22700       -0.63130       -1.13260
C         -0.22490       -1.95870       -1.14660
C         -0.01430       -2.76250       -0.01540
N         -0.08960       -4.15410       -0.09310
C          0.21040       -2.09510        1.19080
C          0.20910       -0.70680        1.20790
H          0.16500        1.94100        0.97730
H          0.72930        1.88870       -0.70490
H         -0.99640        1.88180       -0.36310
H         -0.40190       -2.43360       -2.11190
H          0.08810       -4.53190       -1.01300
H          0.44170       -4.64620        0.61090
H          0.38060       -2.65930        2.10360
H          0.38400       -0.17590        2.13800
