17
gdb 1083	4.63514	1.37628	1.36228	1.3077	69.1	-0.2426	0.0502	0.2928	1005.3115	0.144474	-309.69928	-309.689948	-309.689004	-309.734317	32.465
C         -0.01000        1.46070        0.02370
C          0.01040        0.00490        0.01660
C          0.03480       -1.19810        0.02360
C          0.03740       -2.66520       -0.01420
C         -1.40970       -3.19370        0.01730
C          0.77620       -3.15680       -1.27390
O          0.73850       -3.10100        1.16020
H          1.00500        1.87300        0.01990
H         -0.53030        1.85370       -0.85690
H         -0.52270        1.84740        0.91120
H         -1.98140       -2.83150       -0.84160
H         -1.40900       -4.29010       -0.01020
H         -1.90520       -2.86620        0.93380
H          1.80940       -2.80340       -1.26050
H          0.77910       -4.25310       -1.30280
H          0.29070       -2.79310       -2.18370
H          0.74380       -4.06480        1.14030
