18
gdb 17964	2.65515	2.4346	1.46453	2.1356	69.1	-0.2465	0.0057	0.2522	882.1907	0.155911	-384.925663	-384.918556	-384.917612	-384.956739	27.736
C         -0.00720        1.42670        0.04640
C          1.36590        2.11660       -0.13570
C          2.20290        1.47760       -1.20800
C          2.92910        0.37640       -1.01590
C          3.05350       -0.34040        0.31020
O          1.96290       -1.21170        0.61730
C          0.79210       -0.60730        1.08650
O          0.02660        0.01190        0.08350
H         -0.48490        1.82810        0.95380
H         -0.65830        1.66390       -0.80090
H          1.17460        3.17200       -0.35940
H          1.89920        2.09700        0.82100
H          2.14710        1.90990       -2.20450
H          3.45920       -0.06610       -1.85500
H          3.93500       -0.98690        0.30330
H          3.18390        0.38130        1.13160
H          0.19430       -1.43490        1.48090
H          1.01570        0.10720        1.89850
