18
gdb 13015	2.53193	2.44334	1.601	1.3775	66.41	-0.2316	0.0679	0.2995	862.2023	0.153934	-384.925548	-384.917849	-384.916905	-384.957062	29.825
C         -0.33890        1.43820       -0.02120
C          0.06090       -0.01570        0.00680
C         -0.64300       -1.00140        0.94030
C          0.81730       -0.67360        1.12080
O          1.77070       -1.58120        0.62580
C          1.45070       -1.84720       -0.73500
C          0.62910       -0.64120       -1.26260
O         -0.31420       -0.99370       -2.25780
H          0.49910        2.07180       -0.33420
H         -1.16180        1.60260       -0.72570
H         -0.66930        1.78150        0.96410
H         -1.34350       -0.57840        1.65270
H         -0.91470       -1.99350        0.59160
H          1.16940       -0.15400        2.00460
H          2.38430       -2.00720       -1.28030
H          0.84480       -2.76140       -0.83140
H          1.28750        0.08750       -1.74850
H         -1.01800       -1.49180       -1.82650
