13
gdb 21529	3.52148	1.92077	1.30015	3.5621	57.17	-0.2224	-0.0355	0.1868	870.8778	0.095868	-431.884407	-431.877105	-431.876161	-431.91617	26.489
N         -0.07550        1.36710       -0.13740
C         -0.08430       -0.01370       -0.05000
C         -1.12690       -0.89000        0.05750
C         -2.60460       -0.68380        0.01960
O         -2.95750        0.32810       -0.92050
O         -0.60520       -2.12500        0.18140
N          0.79240       -1.98840        0.14980
N          1.06790       -0.75870        0.01250
H          0.75710        1.73140       -0.57950
H         -0.92530        1.73420       -0.54480
H         -3.10730       -1.63810       -0.18490
H         -2.97410       -0.31900        0.98470
H         -2.74330       -0.00430       -1.79930
