16
gdb 18990	3.84111	2.26605	2.15622	1.9906	62.51	-0.2438	0.0597	0.3034	712.8647	0.132629	-383.668099	-383.662253	-383.661309	-383.697955	23.458
C          0.27420        1.55530       -0.21120
O          1.56570        1.40530        0.44480
C          1.32830        0.00810        0.69410
C         -0.02590        0.05570       -0.06290
C          0.58890       -0.86810       -1.16430
O          1.23820       -0.18230       -2.25000
C          2.54080       -0.30640       -1.61060
C          1.91970       -0.97070       -0.37210
H         -0.38450        2.20920        0.37180
H          0.37240        1.92880       -1.23390
H          1.45940       -0.26030        1.74600
H         -0.98060       -0.24950        0.36360
H         -0.01650       -1.71370       -1.50230
H          3.19940       -0.96050       -2.19340
H          3.01520        0.66530       -1.44990
H          2.34760       -1.90290       -0.00560
