17
gdb 18968	6.20762	1.36626	1.35432	2.822	68.65	-0.2294	0.0694	0.2988	951.0287	0.142896	-363.747669	-363.740786	-363.739842	-363.778899	26.463
O         -0.05870        1.45190       -0.31080
C          0.06020        0.10210        0.11970
C         -1.31970       -0.51460        0.06430
C         -1.93170       -0.86680       -1.29780
C         -1.11280       -2.18460       -1.47280
C         -2.41540       -2.94320       -1.68940
N         -2.86120       -1.92780       -0.64200
C         -1.46970       -2.04200        0.04040
H          0.80550        1.86790       -0.24100
H          0.75540       -0.46080       -0.52370
H          0.44880        0.04380        1.14930
H         -2.01390       -0.00460        0.74020
H         -2.31270       -0.21020       -2.08120
H         -0.12760       -2.32020       -1.93100
H         -2.92760       -2.82970       -2.65070
H         -2.47530       -3.98100       -1.34390
H         -1.30810       -2.77510        0.83390
