19
gdb 13993	5.2923	1.09902	1.02757	2.8278	71.35	-0.2293	0.076	0.3054	1182.6115	0.165697	-365.010262	-365.002047	-365.001103	-365.04332	30.399
O         -0.16820        1.49970       -0.02340
C         -0.01590        0.09880       -0.18890
C         -1.34210       -0.55920        0.18500
C         -1.28940       -2.05660        0.07950
C         -1.57070       -2.79770       -1.16950
N         -2.53820       -2.91890       -0.06030
C         -1.91170       -3.90230        0.89390
C         -0.67330       -2.99840        1.11980
H          0.66280        1.92300       -0.25780
H          0.24300       -0.15820       -1.22850
H          0.79000       -0.29330        0.45310
H         -1.60480       -0.25980        1.20700
H         -2.12930       -0.17360       -0.47190
H         -1.96250       -2.23360       -2.01080
H         -0.97430       -3.66620       -1.44560
H         -2.54200       -4.02040        1.77730
H         -1.73580       -4.88760        0.44900
H          0.31570       -3.40780        0.89230
H         -0.64900       -2.56340        2.12160
