15
gdb 18043	3.59393	2.40422	1.76951	1.6588	61.18	-0.2521	0.0176	0.2697	747.372	0.121596	-399.786074	-399.779868	-399.778924	-399.816603	23.382
C          0.04300        1.52580        0.15190
O          1.45650        1.55400       -0.14630
C          1.43670        0.16870       -0.54490
C          2.49590       -0.68000        0.11930
O          2.26270       -0.89580        1.51660
C          0.97410       -0.99970        1.91190
N         -0.09030       -0.68040        1.30540
C          0.00930       -0.01810        0.02280
H         -0.18410        1.91950        1.14680
H         -0.54300        2.05890       -0.60750
H          1.51820        0.06520       -1.63640
H          2.53210       -1.65800       -0.37960
H          3.47990       -0.21020        0.04470
H          0.93010       -1.42210        2.91440
H         -0.74310       -0.42230       -0.65680
