16
gdb 18777	3.96769	2.40814	2.10608	1.2415	66.77	-0.2341	0.076	0.3101	705.2581	0.131794	-346.521441	-346.515636	-346.514692	-346.550827	24.767
O         -0.04780        1.31320        0.07430
C          0.06070       -0.05910        0.05590
C         -0.13390       -0.92350       -1.19840
C         -1.06640       -1.05110        0.00090
C         -0.05060       -2.09650        0.55100
C          0.72740       -2.14990       -0.82190
C          2.00390       -1.61320       -0.12360
C          1.00940       -0.97110        0.87620
H          0.64720        1.68420       -0.48120
H         -0.34040       -0.48460       -2.16620
H         -2.13800       -0.93200        0.08300
H         -0.25480       -2.94990        1.19200
H          0.73960       -3.01510       -1.48430
H          2.58040       -2.42100        0.33840
H          2.67630       -0.95840       -0.68930
H          1.28030       -0.66620        1.88620
