14
gdb 20375	6.40044	1.47547	1.32636	6.0818	62.8	-0.2803	-0.0144	0.2659	901.3742	0.108988	-374.863311	-374.85685	-374.855906	-374.895059	23.439
C         -0.18320        1.36920       -0.27990
C          1.23300        1.07530        0.15760
C          0.21800       -0.03230        0.08960
N         -0.27970       -0.64310        1.29050
C         -0.55390       -0.15160        2.51240
N         -0.99530       -1.12620        3.28020
N         -0.98620       -2.23580        2.50030
N         -0.56120       -1.96570        1.31020
H         -0.82540        1.90560        0.40980
H         -0.37940        1.57460       -1.32580
H          2.02400        1.07570       -0.58330
H          1.54030        1.41470        1.14060
H          0.30250       -0.78060       -0.68670
H         -0.42830        0.87810        2.80240
