14
gdb 18207	4.45911	1.73574	1.4265	5.7085	61.33	-0.2492	0.024	0.2732	847.2622	0.108777	-378.70299	-378.696377	-378.695433	-378.733926	24.689
N         -0.02780       -1.12610       -0.25530
C         -0.00800        0.02410       -0.15300
C          0.00290        1.49290       -0.07340
N         -0.62300        1.96460        1.16480
C         -0.03800        3.25680        1.54100
C          1.36160        3.18710        0.96820
O          2.04210        1.95820        1.24580
C          1.40320        2.10290       -0.01540
H         -0.46910        1.87130       -0.99830
H         -1.63260        1.96830        1.11930
H         -0.54480        4.13180        1.09960
H         -0.04820        3.37280        2.63050
H          1.98170        4.07620        0.90620
H          2.03600        2.07960       -0.89700
