17
gdb 9361	5.33312	0.94226	0.84313	2.8296	62.69	-0.2564	0.0581	0.3145	1357.0122	0.140876	-438.172512	-438.16288	-438.161936	-438.208682	32.055
C         -0.20970        1.30890        0.05100
N         -0.09430       -0.11830       -0.15900
C          0.65820       -0.64630       -1.15940
O          1.27330       -0.02450       -1.99600
O          0.62240       -2.00760       -1.09070
C          1.37180       -2.69290       -2.10940
C          1.12050       -4.17400       -1.89310
O         -0.24370       -4.51280       -2.04880
H          0.31460        1.80360       -0.76730
H         -1.25790        1.62720        0.04570
H          0.24520        1.61760        0.99950
H         -0.51830       -0.76010        0.48910
H          1.02220       -2.37240       -3.09490
H          2.43490       -2.44630       -2.01920
H          1.67830       -4.74370       -2.64340
H          1.49920       -4.46640       -0.90060
H         -0.73770       -3.92160       -1.47020
