17
gdb 17295	3.25653	2.44166	1.91481	2.9445	67.23	-0.2272	0.0713	0.2985	769.5579	0.142734	-363.785109	-363.778426	-363.777482	-363.815448	26.938
C         -0.07210        1.51180       -0.00860
C          0.02390        0.01130        0.06330
O         -1.24950       -0.66250       -0.00330
C         -0.93830       -1.47000        1.16220
C          0.45190       -0.81320        1.30580
C          1.61020       -1.41010        0.47390
N          1.00920       -2.11590       -0.67750
C          1.18640       -0.64890       -0.74080
H          0.91430        1.97180        0.11330
H         -0.47090        1.81560       -0.98330
H         -0.73900        1.89650        0.76790
H         -1.62810       -1.25080        1.98600
H         -0.94630       -2.53830        0.93240
H          0.72230       -0.34120        2.24910
H          2.60180       -1.66390        0.82760
H          1.77280       -2.52850       -1.21210
H          1.77250       -0.19790       -1.53410
