19
gdb 3068	9.22174	0.98589	0.94687	1.7189	68.41	-0.2619	0.0928	0.3547	1262.5809	0.170556	-310.905322	-310.896963	-310.896019	-310.93867	29.355
C         -0.19250        1.52520       -0.11000
C          0.04410        0.01710        0.00600
C          0.74630       -0.57620       -1.21930
C          0.98670       -2.08790       -1.11070
C          1.66580       -2.65350       -2.33330
C          1.36260       -3.98690       -2.86610
O          0.85190       -2.81340       -3.50100
H          0.75310        2.06640       -0.22640
H         -0.81630        1.76170       -0.97910
H         -0.69500        1.92100        0.77820
H          0.64070       -0.19310        0.90400
H         -0.91600       -0.49460        0.15490
H          0.14990       -0.37890       -2.11910
H          1.70740       -0.06510       -1.37100
H          1.60620       -2.30490       -0.22940
H          0.03160       -2.60730       -0.96470
H          2.65470       -2.24160       -2.54830
H          2.11740       -4.53440       -3.42950
H          0.62020       -4.60730       -2.36480
