15
gdb 18819	4.21764	2.23079	1.85447	2.4581	63.47	-0.2347	-0.0177	0.2169	728.7939	0.121007	-362.639333	-362.633556	-362.632612	-362.669087	23.358
O          0.01350        0.00770        0.13880
C         -0.00190        1.20240        0.01290
C         -1.24660        2.11200       -0.05630
N         -0.77470        3.43550       -0.47420
C          0.26630        4.08280        0.33990
C          1.07530        3.09160        1.18490
C          1.17380        2.16160       -0.08300
C          0.61820        3.35070       -0.91520
H         -1.95120        1.72620       -0.79990
H         -1.76480        2.14030        0.90770
H          0.15430        5.14480        0.52460
H          2.05780        3.49810        1.43370
H          0.62060        2.67710        2.09080
H          2.13390        1.70420       -0.30440
H          0.91410        3.68470       -1.90180
