14
gdb 18306	3.7196	2.28032	1.61381	4.5455	63.52	-0.2346	-0.0582	0.1764	770.5043	0.108873	-382.543557	-382.537414	-382.53647	-382.573977	23.259
O          0.02170        0.05210        0.31430
C         -0.03650        1.22930        0.05390
C         -1.24990        2.06890       -0.10830
C         -0.92120        3.32520       -0.44130
C          0.56410        3.54390       -0.52350
C          1.24210        4.02730        0.78810
O          1.64840        2.68550        1.11720
C          1.16360        2.17390       -0.15280
H         -2.24890        1.67490        0.02890
H         -1.62940        4.12960       -0.61220
H          0.88810        4.04140       -1.43870
H          2.10710        4.68220        0.62790
H          0.58620        4.46420        1.54920
H          1.96060        1.73420       -0.75880
