14
gdb 1634	4.88129	2.10602	1.48729	2.8892	57.44	-0.2439	0.0078	0.2517	782.3894	0.114323	-357.939331	-357.931785	-357.930841	-357.970874	26.843
C          0.04110        1.50000        0.00720
N          0.01940        0.04240        0.01050
C         -0.04150       -0.63760        1.22210
N         -0.09760       -0.02070        2.33320
C          0.07550       -0.71930       -1.16460
N          0.10680        0.01960       -2.32600
O          0.13400       -1.93390       -1.16300
H          0.88340        1.87200       -0.58280
H         -0.89340        1.91760       -0.38800
H          0.14860        1.82350        1.04190
H         -0.03210       -1.71620        1.06800
H         -0.13140       -0.68910        3.09960
H         -0.28000        0.94780       -2.35520
H         -0.01960       -0.53850       -3.15520
