19
gdb 16592	2.43508	2.11811	1.91599	1.8527	71.09	-0.2235	0.0594	0.2829	867.2146	0.1652	-365.010752	-365.002479	-365.001535	-365.04275	31.609
C          0.03660        1.71810       -0.38010
C          0.04470        0.20290       -0.41310
C          0.57270       -0.67310       -1.48020
C          1.89980       -0.20940       -2.06120
O          1.83680        1.01120       -2.77420
C          2.46340       -0.25060       -0.60380
C          3.15340        0.94350        0.03430
N          1.13880       -0.72320       -0.05090
H          0.77550        2.16020       -1.04410
H         -0.94950        2.06510       -0.70830
H          0.18980        2.08480        0.64060
H         -0.86670       -0.20850        0.02180
H         -0.00490       -1.49630       -1.88950
H          2.35920       -0.98790       -2.68270
H          2.69970        1.17300       -3.16860
H          3.12850       -1.11620       -0.51390
H          2.65180        1.89030       -0.16250
H          3.20550        0.80150        1.11890
H          4.18140        1.02340       -0.33760
