16
gdb 12318	3.13632	2.17727	1.35221	4.4519	67.82	-0.2619	-0.0391	0.2228	899.7058	0.13139	-383.795426	-383.788066	-383.787122	-383.827011	27.336
C          0.01720        1.49730       -0.10810
C         -0.03310       -0.00220       -0.04640
C         -1.15070       -0.71690        0.13210
C         -1.12000       -2.21680        0.18660
C          0.09300       -2.71360       -0.58580
O          1.29740       -2.04960       -0.18050
C          1.29010       -0.69400       -0.08290
O          2.33650       -0.10690        0.02580
H          0.66150        1.89400        0.68190
H          0.44940        1.83570       -1.05580
H         -0.98250        1.92710       -0.00670
H         -2.10520       -0.21150        0.25970
H         -1.08560       -2.56150        1.22990
H         -2.02900       -2.64430       -0.25140
H          0.28010       -3.77710       -0.42370
H         -0.05650       -2.54830       -1.66100
