16
gdb 5735	3.88315	2.07387	1.38217	1.5633	73.47	-0.1696	0.0535	0.2231	875.8369	0.133094	-342.776524	-342.769355	-342.768411	-342.80813	26.939
N         -0.03270        1.44530       -0.13560
C         -0.00010        0.03850       -0.02370
C         -1.04880       -0.85690       -0.00140
C         -2.46920       -1.33990       -0.24590
C         -1.82570       -2.77910       -0.27860
N         -0.54040       -2.13150        0.03320
C          0.81920       -2.12000       -0.00390
C          1.17960       -0.77780        0.00190
H          0.78940        1.87150        0.27380
H         -0.84930        1.84450        0.31000
H         -3.19300       -1.18220        0.55990
H         -2.92610       -1.03740       -1.19260
H         -2.16710       -3.48490        0.48440
H         -1.84790       -3.25990       -1.26090
H          1.42450       -3.01140        0.02820
H          2.19370       -0.40590        0.04810
