14
gdb 4312	3.90392	1.86763	1.26434	5.0438	68.79	-0.2025	-0.0166	0.1858	894.4181	0.110259	-378.799272	-378.792591	-378.791647	-378.829798	26.417
N          0.01720        1.39320        0.15940
C         -0.00010        0.01640        0.05820
C         -1.17580       -0.69810        0.03560
C         -1.21000       -2.13470       -0.00810
O         -2.19510       -2.85760       -0.03020
N          0.08020       -2.72470       -0.03380
C          1.24670       -2.03290       -0.01660
C          1.25630       -0.67690        0.02910
H          0.84090        1.86300       -0.18200
H         -0.84090        1.87150       -0.06750
H         -2.13730       -0.19840        0.05310
H          0.07490       -3.73370       -0.06850
H          2.15560       -2.62260       -0.04080
H          2.19250       -0.13480        0.05520
