17
gdb 7756	3.26967	1.88329	1.28495	3.7181	71.16	-0.2381	0.0118	0.2499	952.6464	0.143693	-363.916679	-363.909115	-363.908171	-363.948916	28.455
C         -0.30220        1.54380        0.00240
C          0.06600        0.04890        0.02460
N          0.78480       -0.31940       -1.18780
C          2.00760       -0.91130       -1.32560
O          2.47640       -1.16310       -2.42070
C          2.76020       -1.23740       -0.04270
C          2.05180       -0.87490        1.22700
C          0.85160       -0.30640        1.25260
H          0.60120        2.16010       -0.00610
H         -0.89510        1.78330       -0.88660
H         -0.89760        1.80520        0.88280
H         -0.87980       -0.51840        0.05410
H          0.33500       -0.12370       -2.07150
H          2.99570       -2.30920       -0.07240
H          3.73420       -0.73540       -0.10920
H          2.56320       -1.10260        2.15890
H          0.37080       -0.06300        2.19550
