15
gdb 1444	6.35729	1.28907	1.1888	2.6304	59.13	-0.2494	-0.0377	0.2117	1001.3994	0.121749	-345.687338	-345.679064	-345.67812	-345.721263	27.528
C          0.11560        1.48430        0.25730
C         -0.10800       -0.01610        0.09290
C         -1.48110       -0.37440       -0.44350
O         -2.32610        0.45140       -0.70230
C         -1.77770       -1.86590       -0.62810
C         -3.03970       -2.26010        0.12670
O         -3.13140       -3.24310        0.81220
H          1.11840        1.68470        0.64390
H          0.00230        2.00250       -0.69820
H         -0.61470        1.91340        0.94790
H          0.63700       -0.46470       -0.58000
H          0.02040       -0.55120        1.04510
H         -1.98580       -2.01520       -1.69630
H         -0.95320       -2.51740       -0.33260
H         -3.88130       -1.55000       -0.00890
