14
gdb 13647	5.66229	0.91849	0.83461	6.0393	78.09	-0.269	-0.0444	0.2246	1311.03	0.107083	-341.547969	-341.540015	-341.539071	-341.580846	28.071
C         -0.12590        1.50380       -0.13960
C         -0.00950        0.01130        0.02930
N          1.31110       -0.58250       -0.16690
C          0.71000       -0.62180        1.19010
C          1.34800        0.15210        2.21160
C          1.85840        0.79400        3.10040
C          2.43790        1.52030        4.09910
N          2.92930        2.13880        4.95160
H          0.76080        2.00830        0.25020
H         -0.22500        1.75670       -1.20000
H         -1.00660        1.88580        0.38640
H         -0.86780       -0.56240       -0.31870
H          1.24310       -1.50630       -0.58650
H          0.31360       -1.57260        1.54000
