19
gdb 6810	2.89644	1.7094	1.42895	4.1302	75.53	-0.2977	0.0279	0.3256	973.6661	0.16503	-327.946306	-327.937803	-327.936859	-327.978863	31.999
C         -0.12550        1.51520        0.01740
C         -0.03830       -0.01090       -0.02040
C         -1.39430       -0.63430       -0.32920
C          1.17300       -0.50710       -0.87470
C          2.01970       -0.65200        0.41450
C          0.69980       -0.61300        1.24270
C          0.68000        0.12840        2.49080
N          0.66490        0.73960        3.47300
H          0.84330        1.97600        0.23390
H         -0.46700        1.89370       -0.95200
H         -0.83020        1.85360        0.78350
H         -1.76530       -0.29220       -1.30200
H         -1.33550       -1.72750       -0.36020
H         -2.13850       -0.35670        0.42590
H          0.97150       -1.47370       -1.34540
H          1.54340        0.18130       -1.63760
H          2.62950       -1.54960        0.52680
H          2.64390        0.22180        0.61010
H          0.33700       -1.62770        1.43330
