15
gdb 3348	5.57608	2.7894	2.06748	1.4778	63.53	-0.2261	0.0098	0.2359	642.373	0.12671	-308.486071	-308.48036	-308.479416	-308.515392	22.194
C          0.00370        1.53540        0.04810
C          1.57650        1.40390        0.04540
C          1.32410       -0.02860        0.46380
C          1.42360       -0.86410        1.48960
C          0.09340       -1.59590        1.61070
O         -0.83280       -0.85750        0.78770
C         -0.07050       -0.03390       -0.06980
H         -0.36600        1.86750        1.01980
H         -0.44930        2.12140       -0.75490
H          1.98300        1.50470       -0.96560
H          2.15080        2.03470        0.72570
H          2.20910       -0.94320        2.23040
H          0.13090       -2.64620        1.27900
H         -0.27400       -1.59230        2.64550
H         -0.19940       -0.33920       -1.11840
