20
gdb 17550	3.08243	2.06429	1.61989	0.3442	79.13	-0.235	0.0942	0.3292	901.0028	0.177107	-311.831462	-311.823769	-311.822825	-311.862851	30.772
C         -0.02620        1.55950        0.04120
C          0.04960        0.06070       -0.00360
C         -0.87130       -0.84220        0.77710
C          0.61300       -0.94200        1.01320
C          1.27500       -1.75510       -0.10790
C          0.68060       -0.75690       -1.12500
C          0.12390       -1.03480       -2.49130
C          1.38710       -0.21370       -2.32880
H          0.94140        2.01720       -0.19330
H         -0.76010        1.94770       -0.67650
H         -0.32900        1.90660        1.03460
H         -1.43470       -0.35550        1.56800
H         -1.40520       -1.65160        0.28330
H          1.05010       -0.74450        1.98490
H          2.36770       -1.71700       -0.07880
H          0.95930       -2.80130       -0.19400
H          0.21740       -2.04110       -2.88740
H         -0.78250       -0.52000       -2.79510
H          1.32620        0.85210       -2.52620
H          2.33330       -0.66310       -2.61470
