16
gdb 7268	4.41801	1.3016	1.03386	6.5282	65.45	-0.2459	-0.0062	0.2396	1109.6044	0.129024	-417.107013	-417.097716	-417.096772	-417.141988	30.852
C          0.10340        1.46990        0.09370
N          0.11280        0.02240       -0.04740
C          0.38160       -0.75390        1.14890
C         -0.14780       -0.50930       -1.29110
O         -0.23990        0.14800       -2.30180
N         -0.32480       -1.91640       -1.27830
C         -0.31790       -2.75820       -2.38210
O         -0.02080       -2.47580       -3.50910
H          1.08290        1.83400        0.42700
H         -0.12770        1.90520       -0.87670
H         -0.65030        1.78470        0.82630
H         -0.52980       -1.00670        1.71200
H          0.92020       -1.67410        0.91010
H          1.02430       -0.16880        1.81270
H         -0.57850       -2.35690       -0.40840
H         -0.61760       -3.78110       -2.07030
