22
gdb 13207	3.99811	1.15092	0.9545	1.3481	78.4	-0.262	0.0789	0.3409	1270.6587	0.199848	-350.194708	-350.185397	-350.184453	-350.228709	34.345
C          0.05120        1.50700        0.11380
C         -0.07750       -0.01870        0.01540
C         -1.54480       -0.44730       -0.02350
O         -2.17020       -0.02690        1.18200
C          0.67880       -0.57500       -1.18850
C          2.22780       -0.43050       -1.23860
C          2.30440       -1.85050       -1.86050
C          0.86740       -2.11420       -1.33760
H          1.09770        1.81050        0.21500
H         -0.35070        1.99020       -0.78550
H         -0.50400        1.88500        0.97510
H          0.35640       -0.46210        0.92380
H         -2.03450        0.00480       -0.90310
H         -1.60990       -1.54080       -0.13760
H         -3.09980       -0.26750        1.13860
H          0.24540       -0.16720       -2.11170
H          2.64850        0.40190       -1.80800
H          2.65360       -0.41000       -0.22950
H          2.33620       -1.81230       -2.95330
H          3.10060       -2.51440       -1.51550
H          0.87940       -2.60630       -0.35880
H          0.17780       -2.65750       -1.98880
