16
gdb 6457	4.67071	1.26821	1.18582	0.9996	61.82	-0.2636	-0.0394	0.2242	1017.2265	0.128533	-420.871345	-420.863367	-420.862423	-420.903637	29.979
O          0.67330        0.62340       -0.79790
C         -0.02430       -0.26480        0.03320
C          0.10770       -0.13780        1.57290
C         -1.42360       -0.44680        1.70620
O         -2.14920        0.36070        2.57730
C         -1.56250       -0.13230        0.17660
C         -1.68010       -1.90070        2.00760
O         -2.42300       -2.24960        2.89430
H          0.45010        1.52190       -0.53180
H          0.26020       -1.26360       -0.31080
H          0.82470       -0.77630        2.09480
H          0.26470        0.90130        1.87740
H         -2.63740       -0.24510        3.15830
H         -1.88530        0.90870        0.08010
H         -2.20620       -0.76540       -0.43890
H         -1.14930       -2.63800        1.37070
