18
gdb 8428	3.86925	1.82438	1.78274	0.924	66.97	-0.2401	0.0886	0.3287	849.0293	0.152301	-384.931314	-384.923657	-384.922713	-384.962749	29.951
C          0.18550        1.49130        0.01850
C         -0.00400       -0.01470        0.00350
C         -1.47190       -0.44160       -0.04310
O          0.70490       -0.55660       -1.12160
C          1.22490       -1.79780       -0.71780
C          2.51770       -1.74940        0.06800
C          1.18030       -1.80720        0.77440
O          0.63660       -0.57100        1.16200
H          1.25080        1.72740        0.05350
H         -0.24850        1.93380       -0.88170
H         -0.30450        1.92350        0.89450
H         -1.95240       -0.05280       -0.94500
H         -1.54600       -1.53250       -0.05280
H         -2.00520       -0.06500        0.83400
H          0.96800       -2.63890       -1.35240
H          3.13110       -2.64500        0.08070
H          3.05230       -0.80680        0.08990
H          0.88620       -2.65620        1.38190
