14
gdb 3141	4.38428	2.7132	1.95743	2.6185	59.32	-0.2562	0.0256	0.2819	669.8761	0.114358	-324.559213	-324.553035	-324.552091	-324.589151	23.187
N         -0.08290        1.19280       -0.27610
C         -0.04710       -0.03120       -0.00670
O          0.99290       -0.84120        0.42030
C          0.12150       -2.01940        0.45810
C         -1.03590       -1.14470       -0.01160
C         -2.47530       -1.09260        0.41580
C         -2.12490       -1.39740       -1.01520
H          0.82750        1.63550       -0.14760
H          0.47270       -2.78610       -0.23800
H          0.05390       -2.42170        1.47260
H         -2.84160       -1.90230        1.03810
H         -2.87760       -0.11350        0.65040
H         -2.28730       -0.62710       -1.76080
H         -2.25220       -2.41500       -1.36920
