17
gdb 6813	3.07573	1.74966	1.44452	4.4165	68.18	-0.278	0.0002	0.2782	930.4054	0.14091	-363.860668	-363.852265	-363.85132	-363.893887	30.329
C         -0.27020        1.55430        0.02760
C         -0.06470        0.04480        0.00080
C         -1.33060       -0.69660       -0.42350
C          1.22080       -0.44690       -0.71480
O          1.69980       -1.10630        0.48100
C          0.60470       -0.60700        1.26380
C          1.04040        0.29780        2.33270
N          1.36730        1.01890        3.17480
H          0.63020        2.08210        0.35260
H         -0.53360        1.91370       -0.97310
H         -1.08380        1.83060        0.70620
H         -1.64290       -0.38050       -1.42450
H         -1.17090       -1.77930       -0.44650
H         -2.15620       -0.48780        0.26530
H          1.07420       -1.15740       -1.53580
H          1.90470        0.34720       -1.03740
H          0.02470       -1.42090        1.71640
