16
gdb 12209	2.6929	1.92615	1.74756	1.8719	66.12	-0.2494	0.0338	0.2832	848.8554	0.12927	-383.687954	-383.68003	-383.679086	-383.719812	30.444
O          0.01060        1.36730       -0.21420
C          0.05110       -0.04390       -0.05470
C          0.25530       -0.51800        1.40260
C         -1.30320       -0.57220        1.58440
C         -1.85260        0.64370        2.15010
C         -2.27710        1.68270        2.58750
C         -1.38930       -0.63020       -0.00370
O         -2.37790        0.06010       -0.68570
H         -0.31850        1.75900        0.60550
H          0.72740       -0.42080       -0.82490
H          0.69880       -1.51520        1.45110
H          0.80660        0.15390        2.06290
H         -1.69720       -1.44890        2.10450
H         -2.67810        2.57860        2.99350
H         -1.41490       -1.67970       -0.31300
H         -2.05530        0.96980       -0.76390
