18
gdb 9496	2.45322	1.97982	1.74895	3.2519	72.43	-0.234	0.026	0.26	899.0723	0.153117	-343.980773	-343.972235	-343.971291	-344.013318	31.296
C         -0.03780        1.49140       -0.11210
N         -0.04820        0.05870        0.10150
C         -1.30310       -0.62200        0.46870
C         -0.47550       -1.61240        1.31870
C          0.67790       -0.55890        1.23840
C          2.09030       -1.04050        0.91610
C          0.69050        0.29490        2.44610
N          0.68630        0.99900        3.36390
H          0.98330        1.83000       -0.31530
H         -0.64650        1.72100       -0.99240
H         -0.42940        2.06690        0.74340
H         -1.97330       -0.00470        1.08740
H         -1.86840       -1.01890       -0.38020
H         -0.84700       -1.85810        2.31220
H         -0.20890       -2.52360        0.78120
H          2.05660       -1.67050        0.02430
H          2.75650       -0.19460        0.72160
H          2.50540       -1.61380        1.75050
