15
gdb 9136	3.60873	0.95046	0.80684	4.1666	70.61	-0.2781	-0.0091	0.2691	1402.6422	0.11681	-362.639188	-362.629915	-362.62897	-362.675129	31.234
C          0.13990        1.26200        0.59370
C         -0.18610        0.23930       -0.51010
C         -1.45550       -0.44650       -0.29940
C         -2.50990       -0.99710       -0.11290
C         -3.77270       -1.69670        0.13040
O         -3.61020       -2.97880        0.71080
C         -4.67680       -0.85150        0.95270
N         -5.38220       -0.21200        1.60650
H          1.09710        1.74810        0.38610
H         -0.63390        2.03170        0.65150
H          0.20520        0.77420        1.56980
H         -0.21100        0.74050       -1.48590
H          0.61560       -0.50720       -0.57520
H         -4.28330       -1.88090       -0.82300
H         -3.06180       -2.87670        1.49790
