19
gdb 15344	2.9493	1.45499	1.17416	1.0241	77.16	-0.2266	0.0393	0.2658	1104.2211	0.163555	-327.858091	-327.849039	-327.848095	-327.891864	33.077
C          0.03600       -2.87380        1.27760
C         -0.31780       -1.38830        1.42230
C         -1.46230       -0.99740        0.50880
C         -2.88400       -1.03780        0.96140
N         -2.24140        0.23480        0.64950
C         -1.95720        1.21560        1.70630
C         -2.09170        0.80120        3.10680
C         -2.24270        0.47730        4.25570
H          0.88650       -3.14020        1.91220
H         -0.80960       -3.50880        1.56160
H          0.30210       -3.11950        0.24350
H         -0.56900       -1.16480        2.46240
H          0.56320       -0.78080        1.17390
H         -1.26960       -1.23210       -0.53940
H         -3.68320       -1.33880        0.28840
H         -3.05470       -1.27270        2.01010
H         -0.94710        1.60780        1.53690
H         -2.64090        2.05840        1.54250
H         -2.36300        0.19530        5.27270
