16
gdb 10103	2.14092	1.68832	0.9906	3.8558	68.47	-0.2776	-0.0012	0.2763	1153.9246	0.127047	-383.728913	-383.719734	-383.71879	-383.763612	31.557
C         -0.38470        1.52030        0.31460
C         -0.14650        0.02030        0.13510
C          0.66990       -0.30790       -1.12120
O          1.96730        0.31460       -0.96090
C          2.65180        0.61310       -2.08400
O          3.73940        1.10370       -2.06010
C          0.81700       -1.74570       -1.33520
C          0.92980       -2.92910       -1.50790
H          0.56190        2.05980        0.39700
H         -0.94260        1.93860       -0.53070
H         -0.96500        1.70940        1.22190
H          0.38370       -0.39450        0.99850
H         -1.09730       -0.51730        0.05690
H          0.17750        0.13950       -1.99680
H          2.09680        0.36560       -3.00920
H          1.03500       -3.97470       -1.66440
