16
gdb 16578	3.15363	2.62572	2.19534	1.1868	59.02	-0.2433	0.0858	0.3291	704.6653	0.133704	-420.875167	-420.86925	-420.868306	-420.904998	23.605
C         -0.01370        1.57400       -0.01980
O          1.37100        1.93680       -0.02320
C          2.09900        0.72400        0.05060
C          2.32370        0.30980        1.51010
O          1.08580        0.22500        2.20310
C          0.08810       -0.48310        1.47930
C          0.01790        0.03160        0.04180
O          1.28370       -0.25010       -0.57460
H         -0.51700        2.01810        0.84460
H         -0.48250        1.93470       -0.94180
H          3.03560        0.82300       -0.50570
H          2.85700       -0.65420        1.52380
H          2.92220        1.05750        2.03730
H          0.30380       -1.56270        1.45890
H         -0.85310       -0.32140        2.01450
H         -0.76910       -0.45780       -0.53540
