19
gdb 12973	2.32376	2.20603	1.83938	2.1095	72.12	-0.2252	0.0689	0.2941	883.65	0.164186	-365.014978	-365.006478	-365.005534	-365.047231	32.154
C         -0.15420        1.50060       -0.05670
N          0.10130        0.07230        0.09280
C          1.37620       -0.54840       -0.17030
C          2.56270        0.31360        0.29290
C          1.96920        0.25820        1.74170
O          1.63720        1.44820        2.42630
C          0.76260       -0.54390        1.22290
C          0.04380       -1.59730        2.01530
H          0.64660        2.15950        0.29350
H         -0.35010        1.70390       -1.11490
H         -1.05800        1.74850        0.50790
H          1.42500       -1.35720       -0.89280
H          3.52820       -0.19130        0.21270
H          2.64220        1.30580       -0.15990
H          2.59400       -0.38990        2.37280
H          2.45050        1.84890        2.74950
H         -0.57310       -1.14070        2.79820
H         -0.61450       -2.17840        1.36480
H          0.74940       -2.27860        2.50340
