14
gdb 4677	5.97723	1.33404	1.09809	4.9778	74.53	-0.2233	-0.0202	0.2032	1024.5245	0.10898	-341.650841	-341.643526	-341.642581	-341.682628	26.513
C         -0.00090        1.48600        0.09260
C         -0.00200       -0.00040       -0.04330
C         -0.05180       -0.80540       -1.16900
C         -0.02740       -2.15290       -0.74750
C          0.03730       -2.14890        0.63590
N          0.05170       -0.82680        1.04290
C          0.08420       -3.21080        1.56150
N          0.12350       -4.07320        2.33650
H          0.90580        1.85110        0.58940
H         -0.04810        1.94890       -0.89510
H         -0.86050        1.84500        0.67090
H         -0.10070       -0.44900       -2.18640
H         -0.05320       -3.03620       -1.36560
H          0.09560       -0.53010        2.00350
