17
gdb 15397	3.81156	1.06602	0.89854	1.6213	71.2	-0.2457	0.0332	0.2789	1265.2712	0.140822	-363.791882	-363.783099	-363.782155	-363.825755	31.7
O          0.22900        1.34030        0.04650
C          0.04230       -0.05720        0.20110
C         -1.29110       -0.54280       -0.37530
C         -1.45230       -2.03760       -0.24350
N         -1.84600       -2.54350        1.07680
C         -2.78530       -2.69920       -0.06150
C         -4.01980       -1.96470       -0.01700
C         -5.06380       -1.36820       -0.01310
H         -0.45250        1.78400        0.56150
H          0.87760       -0.52560       -0.33260
H          0.11620       -0.36270        1.25570
H         -2.11850       -0.05030        0.14800
H         -1.35410       -0.25310       -1.43080
H         -0.72640       -2.62840       -0.80270
H         -1.40370       -3.43810        1.27090
H         -2.87710       -3.69530       -0.49010
H         -5.98470       -0.83980        0.00110
