18
gdb 7600	2.70934	1.99091	1.40223	3.3082	69.21	-0.236	-0.0217	0.2143	946.3262	0.151348	-384.953899	-384.945254	-384.94431	-384.986658	32.511
C          0.09970        1.36550        0.35980
C         -0.02300       -0.03920       -0.19240
O          0.94890       -0.58700       -0.70050
C         -1.32760       -0.74060       -0.07420
C         -2.50220       -0.04110        0.58040
C         -1.63030       -1.74350       -1.20490
C         -1.19920       -2.28460        0.10740
O          0.01670       -2.89960        0.29980
H          1.10880        1.73570        0.17750
H         -0.63200        2.03500       -0.10490
H         -0.10380        1.37320        1.43640
H         -2.83110        0.83290        0.00610
H         -3.35700       -0.72060        0.64860
H         -2.27080        0.29160        1.59760
H         -2.66980       -1.82660       -1.50490
H         -0.90580       -1.77520       -2.01160
H         -1.95520       -2.71550        0.75730
H          0.67460       -2.37090       -0.18640
