15
gdb 18439	3.12217	2.07532	1.59013	4.7101	65.19	-0.2583	0.0259	0.2843	831.5146	0.118761	-362.632887	-362.625716	-362.624772	-362.664212	26.746
C         -0.17810        1.53930       -0.08180
C          0.06000        0.05610        0.08700
O          1.10750       -0.50220       -0.77820
C          1.65900       -1.20120        0.32100
C          2.24140       -0.25950        1.35070
C          2.86460        0.99190        1.01540
N          3.39630        1.98880        0.76680
C          0.73990       -0.55080        1.31920
H          0.71650        2.12760        0.12350
H         -0.50090        1.74480       -1.10720
H         -0.97780        1.86040        0.59430
H         -0.86330       -0.50320       -0.11070
H          2.00690       -2.21690        0.17340
H          2.73040       -0.77580        2.17300
H          0.23860       -0.94550        2.19230
