13
gdb 9998	2.4632	1.73443	1.12587	2.1516	62.05	-0.2637	-0.0504	0.2133	1008.533	0.092634	-398.588912	-398.580497	-398.579552	-398.623107	28.602
O          0.06310        0.37680        1.18900
C         -0.02410        1.24150        0.34510
N          1.02730        1.73670       -0.36710
C          2.33910        1.13550       -0.27880
C          2.96490        1.04310       -1.67900
O          2.43400        1.48070       -2.66340
C          3.28430        1.85600        0.58000
C          4.10200        2.44550        1.23340
H         -0.97640        1.73240        0.06910
H          0.85870        2.31620       -1.17720
H          2.21340        0.11630        0.11520
H          3.96350        0.56480       -1.69960
H          4.80480        2.96560        1.83710
