17
gdb 4118	2.80884	1.84273	1.23391	1.0848	67.84	-0.2502	-0.0035	0.2467	991.9667	0.140452	-400.945283	-400.936742	-400.935798	-400.978167	31.538
C         -0.70900        1.33530        0.28770
C         -0.02940        0.02290       -0.07990
C          0.99210       -0.00680       -1.26890
C          1.97300       -0.85200       -0.40300
O          3.30780       -0.41790       -0.39770
C          1.10950       -0.47500        0.79020
N          1.31180       -0.35880        2.03410
O          2.59950       -0.86530        2.36600
H          0.02980        2.13160        0.42040
H         -1.40790        1.64270       -0.49700
H         -1.26760        1.23730        1.22320
H         -0.78050       -0.76710       -0.20390
H          0.65460       -0.44450       -2.20910
H          1.42310        0.98020       -1.45190
H          1.89120       -1.92670       -0.63300
H          3.65040       -0.60440        0.48530
H          2.66960       -0.65220        3.30220
