18
gdb 17780	6.63374	1.05507	1.02517	0.2601	82.4	-0.2365	0.0527	0.2892	1216.5867	0.154214	-310.595791	-310.587969	-310.587025	-310.629392	28.715
C          0.06590        1.53880       -0.05550
C          0.04560        0.08400        0.00030
C          0.02820       -1.12040        0.04700
C          0.03650       -2.56900        0.07830
C         -0.09710       -3.33360        1.44520
C         -1.59450       -2.91120        1.47100
C         -1.31340       -3.37160        0.01150
C         -0.53500       -4.57370        0.61630
H          0.84850        1.90020       -0.73200
H         -0.88970        1.93850       -0.41320
H          0.25660        1.97410        0.93200
H          0.81960       -2.96870       -0.57540
H          0.61690       -3.30200        2.26920
H         -2.26550       -3.54480        2.05690
H         -1.80350       -1.85080        1.62020
H         -2.01010       -3.38410       -0.82770
H          0.22530       -5.04100       -0.01630
H         -1.13320       -5.32060        1.14350
