15
gdb 16924	3.84178	2.19867	2.01663	2.4089	60.88	-0.2629	0.0236	0.2865	724.0256	0.122365	-399.820153	-399.81441	-399.813465	-399.849901	23.163
N         -0.05210        1.26580        0.00730
C         -0.02290        0.00720       -0.01660
O          1.11100       -0.78090       -0.05160
C          0.62600       -2.14350       -0.01570
C         -0.62570       -2.07090       -0.89280
C         -1.19370       -0.95390        0.01450
C         -1.09640       -1.67400        1.38220
O          0.13890       -2.42080        1.27370
H          0.89600        1.64750       -0.00170
H          1.44760       -2.81330       -0.25610
H         -0.42160       -1.75110       -1.91540
H         -1.20620       -2.99510       -0.88250
H         -2.15530       -0.50580       -0.21840
H         -1.03360       -0.98450        2.22840
H         -1.93100       -2.36740        1.53840
