13
gdb 5478	3.44261	1.95199	1.24691	5.5225	66.64	-0.2195	-0.0429	0.1765	893.2122	0.096323	-398.636178	-398.629228	-398.628284	-398.667284	25.782
N          0.04220        1.40780        0.14920
C          0.01780        0.03330        0.04160
C         -1.08550       -0.80970        0.01350
O         -0.65160       -2.11930       -0.02650
C          0.68610       -2.08970       -0.02630
C          1.16740       -0.81590        0.01470
C         -2.49450       -0.53240        0.01410
O         -3.39450       -1.34780       -0.01550
H          0.87180        1.85400       -0.21140
H         -0.80050        1.89320       -0.11780
H          1.17940       -3.04870       -0.05790
H          2.20310       -0.51400        0.03040
H         -2.71300        0.56220        0.04510
