19
gdb 12786	3.47673	1.62637	1.34046	2.1377	72.52	-0.2218	0.0771	0.2989	1003.0474	0.164652	-365.008541	-365.000192	-364.999248	-365.041161	31.008
C         -0.21630        1.34300        0.10890
O          0.36960        0.08120       -0.11330
C          0.76920       -0.55750        1.06330
C         -0.30400       -1.21060        2.01850
C          0.45280       -2.52940        1.84430
N          0.34920       -2.84290        0.39810
C          1.41920       -1.92920        0.87400
C          2.86610       -2.19120        0.59150
H          0.47500        2.02910        0.62520
H         -0.46530        1.76320       -0.86850
H         -1.13720        1.27060        0.70690
H          1.43610        0.09630        1.64960
H         -0.28970       -0.79820        3.02930
H         -1.32420       -1.22990        1.62830
H          0.61280       -3.31100        2.57710
H          0.79650       -3.74920        0.25470
H          3.10950       -1.96450       -0.45280
H          3.51070       -1.57390        1.22660
H          3.12010       -3.24110        0.77540
