14
gdb 9439	2.85621	1.79044	1.68471	5.4603	62.96	-0.2706	0.0011	0.2716	851.4939	0.107078	-378.757527	-378.749689	-378.748745	-378.789736	27.799
C         -0.06210        1.54850        0.02430
C         -0.04270        0.01730       -0.01470
C          0.74830       -0.64380       -1.19930
N          1.70000       -1.14010       -0.20520
C          1.08410       -0.61580        0.89630
O          1.32720       -0.60670        2.06720
C         -1.36210       -0.55520        0.20350
N         -2.41260       -1.00810        0.37110
H          0.94200        1.93930       -0.16280
H         -0.74460        1.95170       -0.72840
H         -0.38680        1.89180        1.00940
H          0.20660       -1.42610       -1.73630
H          1.16720        0.07890       -1.90580
H          2.55850       -1.66250       -0.29700
