20
gdb 10208	3.14407	1.08389	0.85582	3.8358	72.38	-0.2429	-0.0151	0.2278	1372.6583	0.174115	-386.150008	-386.139885	-386.13894	-386.185776	34.81
C         -0.08890        1.51130       -0.01290
C          0.07710       -0.00990       -0.05440
C          0.68710       -0.57280        1.23460
C          0.82410       -2.11260        1.23910
C          1.71310       -2.58860        2.38400
O          1.76440       -4.00510        2.32160
C         -0.55500       -2.73450        1.37430
O         -1.22110       -3.15380        0.46480
H          0.87280        2.01300        0.14370
H         -0.51260        1.88900       -0.94830
H         -0.75640        1.81610        0.80100
H         -0.89230       -0.48580       -0.24100
H          0.71620       -0.28870       -0.90170
H          1.68160       -0.13390        1.39030
H          0.08220       -0.25900        2.09780
H          1.24790       -2.45000        0.28710
H          2.71320       -2.13970        2.28550
H          1.29260       -2.24510        3.34440
H          2.26270       -4.32890        3.07770
H         -0.94760       -2.73200        2.42050
