18
gdb 6120	2.79908	1.86425	1.48188	4.3041	67.56	-0.2641	0.0155	0.2795	941.8749	0.151886	-384.98855	-384.979929	-384.978984	-385.021251	31.844
C         -0.34500        1.44990       -0.07830
C         -0.00230       -0.03360       -0.03030
C          1.25860       -0.48640       -0.76640
O          1.71170       -0.39890       -1.86400
O          1.81750       -1.09320        0.32380
C          0.69100       -0.68440        1.20570
C          1.20820        0.24530        2.29010
C          0.00460       -1.91900        1.76450
H          0.50150        2.07900        0.20810
H         -0.63180        1.72630       -1.09680
H         -1.18470        1.68220        0.58400
H         -0.86380       -0.62600       -0.35540
H          1.77330        1.07930        1.86800
H          0.37760        0.64930        2.87770
H          1.86990       -0.30240        2.96760
H          0.67890       -2.46790        2.42870
H         -0.88280       -1.63370        2.33920
H         -0.30550       -2.59120        0.95960
