23
gdb 7545	2.90581	1.33053	1.08648	1.1314	82.59	-0.2179	0.081	0.2989	1233.4718	0.210124	-330.307491	-330.297589	-330.296645	-330.341851	36.67
C         -0.10910        1.62580        0.03140
C         -0.07710        0.10560       -0.14990
C         -1.39660       -0.56280        0.26780
C         -1.44070       -2.07610        0.08760
C         -0.41780       -2.85590        0.89480
C         -2.76710       -2.71440       -0.17920
N         -1.73960       -2.69160       -1.21490
C         -1.99150       -1.88770       -2.39970
H          0.83970        2.08400       -0.26460
H         -0.90170        2.08130       -0.57290
H         -0.29730        1.89570        1.07680
H          0.14000       -0.13520       -1.19770
H          0.75110       -0.31080        0.43500
H         -1.58560       -0.34490        1.32820
H         -2.22290       -0.09560       -0.27880
H         -0.51120       -2.63260        1.96410
H         -0.56060       -3.92910        0.74930
H          0.60530       -2.61450        0.58870
H         -3.01130       -3.69040        0.23530
H         -3.62370       -2.05000       -0.29850
H         -2.55630       -0.95910       -2.22250
H         -1.04040       -1.62560       -2.87470
H         -2.56470       -2.49130       -3.11160
