11
gdb 952	6.0306	2.83994	1.93072	1.3923	54.78	-0.2486	-0.0474	0.2013	601.9397	0.081528	-339.491316	-339.486232	-339.485288	-339.52006	19.287
O          0.10150        1.33730       -0.08880
C          0.06910       -0.00650       -0.04570
C         -0.00740       -0.72940       -1.24840
N         -0.04130       -2.05330       -1.24750
C          0.00050       -2.66400       -0.05480
C          0.07600       -1.94060        1.12650
N          0.11080       -0.60260        1.13670
H          0.15350        1.64010        0.82880
H         -0.04000       -0.20940       -2.20130
H         -0.02710       -3.74890       -0.05000
H          0.10970       -2.43850        2.09180
