18
gdb 3079	9.73433	1.01065	0.96884	2.1266	65.16	-0.2311	0.0791	0.3102	1196.3784	0.159372	-326.93544	-326.927237	-326.926293	-326.968496	28.743
O         -0.15930        1.41550       -0.23720
C         -0.01240        0.03760        0.07180
C         -1.38710       -0.61050       -0.02060
C         -1.35480       -2.10950        0.27270
N         -2.69820       -2.67610        0.22150
C         -3.15090       -3.14600       -1.08340
C         -2.78710       -4.11200       -0.01010
H          0.70500        1.83170       -0.17140
H          0.68250       -0.45470       -0.62900
H          0.39890       -0.10140        1.08560
H         -2.06630       -0.11730        0.68240
H         -1.78940       -0.43650       -1.02550
H         -0.66920       -2.61710       -0.43320
H         -0.95910       -2.28700        1.28100
H         -4.19170       -2.95070       -1.32510
H         -2.46390       -3.05890       -1.92460
H         -1.85920       -4.66810       -0.13800
H         -3.55700       -4.63590        0.54940
