14
gdb 16690	4.47302	1.77564	1.65923	4.2798	57.05	-0.2622	0.0095	0.2717	787.7978	0.108472	-419.682439	-419.676202	-419.675258	-419.712631	24.445
O         -0.00030        1.39190       -0.12660
C          0.02380       -0.00520       -0.03320
C          0.01810       -0.61710        1.40300
C         -1.46300       -0.19910        1.50890
C         -1.42750       -0.60220       -0.00840
C         -1.05310       -2.06890        0.13370
O         -1.43740       -3.06340       -0.39960
O         -0.06240       -2.03740        1.09580
H          0.90310        1.71660       -0.05360
H          0.73370       -0.46250       -0.73400
H          0.77860       -0.44580        2.16220
H         -2.09830       -0.77940        2.18030
H         -1.59740        0.87190        1.64670
H         -2.19150       -0.34800       -0.73700
