17
gdb 11637	3.11115	1.90387	1.4752	4.2278	73.87	-0.3029	0.0255	0.3285	902.4121	0.143534	-326.697686	-326.690505	-326.689561	-326.728954	27.738
C         -0.15140        1.58310       -0.00220
C          0.02300        0.07460        0.01250
C          1.19230       -0.64740       -0.73770
C          2.16600       -0.15900        0.37550
C          0.88110       -0.64800        1.11730
C          0.90710       -1.88400        0.16400
C          0.63740       -0.64620        2.53800
N          0.43220       -0.63470        3.67640
H          0.78250        2.13450        0.12800
H         -0.59210        1.89760       -0.95420
H         -0.83530        1.89380        0.79450
H         -0.94640       -0.41330       -0.13740
H          1.37620       -0.65240       -1.81120
H          3.06060       -0.76380        0.53850
H          2.39610        0.90430        0.42830
H         -0.04520       -2.39860        0.01750
H          1.73160       -2.58360        0.31510
