17
gdb 16238	2.94073	2.30353	1.482	1.8604	69.88	-0.2296	0.0133	0.2429	861.5669	0.143627	-363.841288	-363.834113	-363.833169	-363.872567	28.12
O          0.42890        0.86520       -0.75200
C          0.06750       -0.25640        0.02820
C          0.44550       -0.18640        1.53070
C         -0.64960       -0.98680        2.19730
C         -1.67540       -1.21150        1.37430
C         -1.43250       -0.61120        0.03740
C         -2.43300        0.20910       -0.70420
N         -2.10260       -1.15410       -1.15280
H          0.04000        1.64540       -0.34050
H          0.60500       -1.09470       -0.43150
H          1.45290       -0.56770        1.72640
H          0.43890        0.85970        1.87430
H         -0.59530       -1.30420        3.23240
H         -2.58990       -1.74190        1.61100
H         -3.43700        0.33430       -0.30720
H         -2.05780        1.04550       -1.28760
H         -1.46610       -1.09630       -1.94660
