12
gdb 7405	3.60147	1.63582	1.24536	3.808	52.45	-0.2414	-0.0894	0.152	920.541	0.082571	-451.862667	-451.85431	-451.853366	-451.896351	28.932
N         -0.01460        1.27140       -0.20260
C          0.01640       -0.01250        0.23400
O          0.93980       -0.55790        0.79700
C         -1.31810       -0.74600        0.01050
O         -2.37450       -0.15490        0.02340
C         -1.24930       -2.26450       -0.23020
N         -2.35100       -2.91460        0.22110
O         -0.31260       -2.75990       -0.81680
H          0.75350        1.87840        0.03520
H         -0.89900        1.67870       -0.46010
H         -3.15550       -2.37690        0.50030
H         -2.47100       -3.88430       -0.02420
