15
gdb 10868	3.22139	2.01943	1.58864	1.5102	62.18	-0.2422	-0.0098	0.2325	828.1734	0.118443	-399.746404	-399.739107	-399.738163	-399.77771	27.605
C          0.06590        1.46580       -0.01280
C         -0.02180       -0.02440        0.06620
N          0.62330       -0.96500       -0.97940
C          0.01370       -1.94510        0.02960
C          0.62350       -1.00300        1.11830
O          2.00400       -0.96840        1.25440
C         -1.20640       -1.00820        0.00960
O         -2.38660       -1.02250       -0.16650
H          1.10710        1.79360        0.06600
H         -0.34940        1.84150       -0.95310
H         -0.49890        1.91700        0.80870
H          0.10120       -0.96040       -1.85930
H          0.10900       -3.02220       -0.08660
H          0.17420       -1.03120        2.11130
H          2.35520       -0.96370        0.35160
