18
gdb 8565	3.80106	1.93873	1.63489	2.8605	70.57	-0.234	-0.0148	0.2192	841.2312	0.15609	-347.828484	-347.821923	-347.820979	-347.859365	26.482
O          0.00990        0.13040        0.69990
C         -0.01260        1.19980        0.14030
C         -1.33440        1.89580       -0.21480
C         -1.12120        3.23850       -0.91820
C         -0.06920        3.08000       -2.05280
C          1.00940        3.26780       -0.94800
C         -0.05630        4.07380       -0.15190
C          1.27910        1.93180       -0.25130
H         -1.91250        1.20190       -0.83780
H         -1.90220        2.01450        0.71650
H         -2.07240        3.71740       -1.16210
H         -0.06430        2.14620       -2.62510
H         -0.09050        3.92460       -2.74600
H          1.93990        3.77260       -1.21820
H         -0.07490        5.12520       -0.44960
H         -0.04020        4.01090        0.94150
H          1.86920        2.06650        0.66380
H          1.85840        1.25380       -0.89050
