15
gdb 23887	3.17062	1.41336	1.22134	2.0268	50.1	-0.2792	0.0663	0.3455	985.8488	0.113783	-531.312959	-531.304253	-531.303309	-531.346637	30.547
C         -0.00730        1.55930        0.07010
C         -0.05160        0.02930       -0.01320
C         -1.48570       -0.51140        0.01130
O         -2.04800       -0.14540        1.26090
C          0.67710       -0.47480       -1.24830
F          1.94340       -0.03330       -1.29030
F          0.72530       -1.81850       -1.28540
F          0.07600       -0.07120       -2.38330
H          1.02090        1.92040        0.14250
H         -0.46660        2.00790       -0.81630
H         -0.56180        1.88790        0.95000
H          0.47840       -0.40030        0.84470
H         -2.05160       -0.08120       -0.82860
H         -1.47030       -1.60270       -0.11690
H         -2.96430       -0.43580        1.27430
