13
gdb 21920	3.58408	1.80385	1.21994	4.2334	56.51	-0.2224	0.0018	0.2242	908.309	0.096578	-431.906612	-431.899239	-431.898295	-431.938841	26.161
O         -0.10850        1.46170        0.31440
C          0.05180        0.09740       -0.05780
C         -1.29430       -0.53770        0.00290
C         -1.74640       -1.83290        0.12770
O         -1.00200       -2.95010        0.26010
N         -3.09820       -1.85050        0.09470
N         -3.53340       -0.61950       -0.04040
N         -2.45370        0.16300       -0.10840
H          0.71480        1.92330        0.13060
H          0.46980        0.01730       -1.07430
H          0.73680       -0.43840        0.61570
H         -1.62140       -3.68620        0.34380
H         -2.54480        1.16540       -0.16270
