20
gdb 7434	3.11572	1.35977	1.17595	2.8836	71.43	-0.2593	-0.0261	0.2332	1132.5161	0.174227	-386.170764	-386.160897	-386.159952	-386.205699	35.453
C          0.15490        1.64530       -0.09780
C         -0.02350        0.13720        0.14880
C          0.53610       -0.69150       -1.02210
C          0.69370       -0.25040        1.43610
O          1.88050       -0.04090        1.59170
C         -0.09410       -0.90540        2.57130
C         -0.65910       -2.27360        2.15200
O          0.72240       -1.04060        3.70250
H          1.21780        1.89180       -0.16530
H         -0.33280        1.93680       -1.03270
H         -0.28070        2.24000        0.71130
H         -1.09130       -0.08090        0.26370
H          1.61300       -0.52660       -1.11750
H          0.36780       -1.76320       -0.87820
H          0.05430       -0.39640       -1.95900
H         -0.94180       -0.23410        2.79710
H         -1.17830       -2.71480        3.00620
H         -1.36750       -2.19200        1.32240
H          0.15390       -2.94640        1.86370
H          1.59770       -0.72980        3.41790
