14
gdb 21149	3.55989	1.96672	1.28727	2.2606	62.84	-0.2338	-0.0366	0.1972	908.7032	0.105795	-411.989523	-411.981283	-411.980338	-412.023869	27.009
C         -0.07630        1.41700        0.04870
N         -0.02900       -0.03630       -0.00940
C          0.55380       -0.58760       -0.97840
O          1.19070       -0.04100       -2.06260
N          1.65650       -1.12440       -2.87900
N          1.33630       -2.19450       -2.32280
N          0.68230       -1.95560       -1.17820
C          0.16650       -3.00110       -0.32450
H          0.76750        1.80630        0.63290
H         -0.05180        1.89700       -0.93770
H         -0.99340        1.72080        0.56100
H          0.44960       -3.95880       -0.75990
H          0.58890       -2.90350        0.67890
H         -0.92220       -2.92630       -0.25440
