19
gdb 9609	3.02394	1.47524	1.19803	4.3165	76.65	-0.28	0.0316	0.3117	1081.2152	0.164488	-327.944318	-327.935367	-327.934423	-327.977669	32.848
C          0.16670        1.49360        0.23880
C         -0.18720        0.05660       -0.16360
C          0.64870       -0.47650       -1.31930
C          0.44580        0.21400       -2.65560
C          2.01400       -1.02010       -1.01100
C          0.89880       -1.98620       -1.39580
C          0.35730       -2.88180       -0.41420
N         -0.08540       -3.60420        0.37470
H          1.22380        1.57850        0.51230
H         -0.02720        2.20520       -0.56970
H         -0.42840        1.80690        1.10150
H         -0.06520       -0.60140        0.70310
H         -1.24830        0.00070       -0.43840
H          0.73340        1.26880       -2.60160
H          1.04900       -0.25060       -3.44170
H         -0.60420        0.16830       -2.96490
H          2.81250       -0.88880       -1.73290
H          2.33730       -1.03760        0.02380
H          0.94760       -2.41440       -2.39170
