18
gdb 17587	2.70328	2.43667	1.81076	2.0603	71.61	-0.2339	0.0884	0.3223	830.6242	0.154129	-343.91726	-343.909686	-343.908742	-343.948513	29.558
C          0.00430        1.51270        0.02150
C         -0.04070        0.01560        0.05610
N          1.15460       -0.76740       -0.28610
C          0.55890       -0.97050        1.04170
C          1.37620       -0.74360        2.27650
C         -0.69930       -1.81730        0.93730
N         -1.84060       -0.95550        1.34840
C         -1.28740       -0.85020       -0.02900
H          0.97580        1.87810        0.36410
H         -0.15100        1.88900       -0.99660
H         -0.77730        1.93040        0.66350
H          0.94610       -1.53270       -0.92490
H          2.05620        0.10130        2.14010
H          0.72370       -0.53810        3.13060
H          1.98510       -1.62380        2.51440
H         -0.78370       -2.89840        0.95510
H         -2.68730       -1.52620        1.29290
H         -1.90990       -1.04660       -0.89510
