14
gdb 222	4.76694	2.76751	2.71134	1.7721	54.93	-0.2589	0.0425	0.3014	587.1297	0.116168	-270.399081	-270.391629	-270.390685	-270.429359	27.393
C         -0.03530        1.54310        0.00620
C         -0.00490        0.00280        0.01800
C          0.73850       -0.52820        1.25850
O         -1.34150       -0.51380       -0.01070
C          0.65150       -0.48850       -1.20010
C          1.22670       -0.86790       -2.18360
H          0.97550        1.95840       -0.03130
H         -0.59490        1.89780       -0.86190
H         -0.52360        1.91210        0.91570
H          0.25080       -0.16120        2.16930
H          0.71940       -1.62000        1.26510
H          1.77910       -0.19290        1.26960
H         -1.78080       -0.19800        0.78710
H          1.72180       -1.21080       -3.05840
