20
gdb 13676	5.43014	0.80615	0.75398	2.928	76.91	-0.2463	-0.0185	0.2278	1517.1925	0.175122	-349.006213	-348.996896	-348.995952	-349.041367	32.831
C          0.07710        1.54130       -0.29590
C          0.07440        0.04450       -0.07080
C          1.36460       -0.73820        0.00810
C          0.48960       -0.59930        1.23380
C          0.95540        0.19080        2.43970
C          1.83600       -0.65570        3.38090
C          2.38240        0.16170        4.52670
O          2.22070       -0.08140        5.69480
H          0.93690        2.02770        0.17350
H          0.12170        1.76910       -1.36650
H         -0.82920        2.00920        0.10480
H         -0.74230       -0.46450       -0.57700
H          1.43370       -1.70050       -0.48720
H          2.28860       -0.16620       -0.00890
H         -0.07680       -1.48870        1.50170
H          1.52050        1.07400        2.11980
H          0.08870        0.56500        2.99960
H          1.28490       -1.50820        3.78880
H          2.69020       -1.04290        2.80720
H          2.96910        1.05670        4.20670
