21
gdb 1297	6.23606	1.12984	1.01529	0.8536	72.37	-0.2489	0.088	0.337	1232.7486	0.192456	-312.126544	-312.117027	-312.116082	-312.160843	33.273
C         -0.01080        1.51070       -0.04070
C          0.01720       -0.00840       -0.01670
O          0.67560       -0.46650       -1.17790
C          0.75820       -1.87290       -1.26060
C          1.44890       -2.26310       -2.56720
C          1.67090       -3.77940       -2.61770
C          0.65870       -1.76450       -3.78310
H          1.00620        1.91250       -0.06610
H         -0.54250        1.87050       -0.92630
H         -0.51580        1.89810        0.84940
H          0.53950       -0.37090        0.88560
H         -1.00860       -0.41370        0.02470
H          1.32030       -2.27260       -0.39850
H         -0.25240       -2.31940       -1.22050
H          2.42870       -1.76670       -2.56630
H          0.71580       -4.31840       -2.60160
H          2.19450       -4.06660       -3.53490
H          2.26680       -4.13010       -1.76820
H          1.19420       -1.97630       -4.71430
H         -0.31860       -2.25970       -3.84140
H          0.48770       -0.68770       -3.71790
