17
gdb 13609	4.56786	1.28297	1.18771	1.1526	67.15	-0.2327	-0.0006	0.2321	1071.4394	0.140912	-400.997275	-400.988617	-400.987672	-401.030854	30.266
C         -0.45200        1.43270        0.66060
O         -0.36240        0.03220        0.95000
C          0.82230       -0.54170        0.65620
O          1.76200        0.06590        0.19780
C          0.78150       -1.99860        0.98240
C          1.69610       -2.90590        0.21250
N          1.91700       -2.68310        1.62060
C          3.10150       -1.93500        2.03620
H         -0.26640        1.62000       -0.40000
H         -1.46640        1.72670        0.92970
H          0.27830        1.99480        1.24810
H         -0.19130       -2.35290        1.30720
H          1.34270       -3.89360       -0.07270
H          2.35840       -2.41380       -0.49790
H          3.39220       -1.13340        1.34850
H          2.91630       -1.50320        3.02480
H          3.92590       -2.64850        2.12850
