17
gdb 3996	3.33117	1.51644	1.35869	1.0785	68.31	-0.2459	0.001	0.2469	986.2809	0.139181	-400.944193	-400.935445	-400.934501	-400.977158	31.893
C         -0.18110        1.54810        0.16550
C          0.00260        0.03840        0.06880
C         -1.26100       -0.68500       -0.38090
O          1.14010       -0.29950       -0.79830
C          1.87850       -0.91990        0.27770
C          0.75040       -0.60560        1.22280
N          0.45340       -0.75970        2.43930
O          1.48290       -1.42630        3.12920
H          0.74900        2.03470        0.46910
H         -0.48080        1.94910       -0.80790
H         -0.95660        1.79160        0.89800
H         -1.57410       -0.31160       -1.36110
H         -1.08640       -1.76080       -0.45970
H         -2.07220       -0.51530        0.33360
H          2.07120       -1.98660        0.10570
H          2.83050       -0.41660        0.48980
H          1.13100       -1.47530        4.02470
