14
gdb 8771	4.49448	1.26995	1.17608	1.833	60.18	-0.2708	-0.0486	0.2222	1008.2292	0.103693	-419.637742	-419.62924	-419.628296	-419.670886	30.361
O          0.26410        1.52950       -0.02260
C          0.09250        0.13900        0.02940
C          0.67790       -0.49940       -1.21890
O          1.10800        0.17190       -2.12330
C          0.80290       -0.41410        1.29200
O          2.15810       -0.00990        1.26940
C          0.10540       -0.00130        2.51390
C         -0.46380        0.34440        3.51370
H          0.61200        1.71210       -0.91160
H         -0.97520       -0.13690        0.07410
H          0.67180       -1.60700       -1.25980
H          0.80890       -1.51040        1.23920
H          2.13470        0.94880        1.14090
H         -0.96210        0.64820        4.40130
