18
gdb 18119	4.20775	1.9419	1.43696	1.7064	73.57	-0.2259	0.0171	0.2429	886.0225	0.156507	-347.817636	-347.810913	-347.809969	-347.848646	26.206
C          0.02010        1.51500        0.12860
C          1.51190        1.93050        0.01280
C          2.05420        0.90800       -0.99800
O          3.44190        0.61940       -0.97610
C          3.61020       -0.80000       -0.87260
C          2.25560       -1.33470       -0.46340
C          1.36520       -0.35510       -0.55290
C         -0.02110       -0.04200       -0.06990
H         -0.42080        1.82300        1.07960
H         -0.56270        2.00140       -0.66040
H          1.63800        2.97300       -0.29030
H          2.03350        1.78390        0.96490
H          1.75200        1.20920       -2.01820
H          3.96300       -1.21310       -1.83330
H          4.38720       -1.01380       -0.12530
H          2.10420       -2.34460       -0.10280
H         -0.25110       -0.57390        0.85810
H         -0.79490       -0.32360       -0.79270
