19
gdb 4037	3.31177	1.4804	1.24518	0.5893	74.93	-0.235	0.0158	0.2508	1054.4434	0.163085	-365.018423	-365.009236	-365.008291	-365.052231	33.964
C          0.28670        1.44910        0.01030
C          0.02270       -0.03500        0.03560
N         -0.17140       -0.70610        1.10700
O         -0.11170        0.10150        2.25700
C          0.00170       -0.78510       -1.26130
C         -0.93600       -0.21610       -2.31470
C          1.32680       -1.36420       -1.73200
C          0.22620       -2.27330       -1.24340
H          0.81010        1.73620       -0.90420
H         -0.65200        2.01360        0.05650
H          0.87890        1.74260        0.87910
H         -0.24030       -0.54450        2.95910
H         -0.70290        0.82740       -2.55190
H         -0.86050       -0.78980       -3.24330
H         -1.97770       -0.25920       -1.97790
H          1.54340       -1.33040       -2.79500
H          2.19290       -1.23470       -1.09200
H          0.34880       -2.75000       -0.27990
H         -0.31010       -2.86400       -1.97840
