17
gdb 12553	3.52276	1.90164	1.31388	1.3694	66.02	-0.2455	0.0132	0.2586	928.6205	0.143511	-401.001634	-400.994217	-400.993273	-401.033485	27.627
C          0.24990        1.57110        0.01460
C         -0.05370        0.06900       -0.02620
C          0.52680       -0.55170       -1.29920
O          0.14690       -1.90910       -1.47150
C          0.86700       -2.78940       -0.68680
O          0.46690       -2.86090        0.67940
C          0.52550       -1.75260        1.47230
N          0.36530       -0.52600        1.23600
H          1.33070        1.74650        0.04150
H         -0.16230        2.08400       -0.86010
H         -0.18120        2.01190        0.91570
H         -1.14430       -0.06670       -0.08340
H          0.14560       -0.01720       -2.17420
H          1.62550       -0.46680       -1.29340
H          0.69430       -3.79460       -1.07420
H          1.94080       -2.54070       -0.71150
H          0.70750       -2.07170        2.49930
