12
gdb 7018	8.48519	0.92171	0.84807	2.4335	57.5	-0.31	-0.0491	0.261	1222.3285	0.081982	-414.689577	-414.681582	-414.680638	-414.723105	26.507
N         -0.06610        1.54810       -0.14560
C          0.01730        0.29510       -0.14730
C         -1.15420       -0.62500        0.11440
C         -2.42240        0.06490        0.31980
N         -3.44800        0.56560        0.49000
O          1.13540       -0.48220       -0.41640
C          2.36200       -0.07870        0.04920
O          3.36270       -0.62770       -0.27730
H          0.80240        2.02050       -0.39200
H         -1.24320       -1.31880       -0.73020
H         -0.92730       -1.24820        0.98780
H          2.28690        0.76240        0.75780
