19
gdb 6848	3.31282	1.86764	1.64676	2.1422	70.87	-0.2442	0.0271	0.2713	886.3537	0.166322	-365.085086	-365.077147	-365.076203	-365.116762	30.428
C         -0.07960        1.56640        0.00760
C         -0.01070        0.02910        0.00110
C         -1.42580       -0.56220       -0.00760
C          0.75040       -0.46210       -1.23650
O          2.12730       -0.05710       -1.22260
C          2.73300       -0.10200       -0.01040
N          2.22810       -0.30020        1.13050
C          0.78140       -0.48270        1.22380
H          0.91570        2.01740        0.03250
H         -0.59520        1.93890       -0.88440
H         -0.62970        1.92100        0.88530
H         -2.00180       -0.20380       -0.86830
H         -1.40350       -1.65670       -0.04870
H         -1.97030       -0.27340        0.89770
H          0.71420       -1.55820       -1.29620
H          0.33190       -0.05380       -2.16080
H          3.80030        0.07930       -0.12550
H          0.43770        0.02730        2.13190
H          0.57960       -1.55090        1.38350
