16
gdb 3511	6.09037	1.95952	1.92264	2.5426	60.87	-0.2382	0.0717	0.3099	723.7391	0.138754	-325.682121	-325.675929	-325.674985	-325.712321	23.795
O          0.06540        1.38390        0.62950
C          0.14860        0.09020        0.05420
C         -1.23410       -0.53470        0.01850
C         -1.55710       -2.05120        0.02440
C         -1.09630       -2.03280        1.49720
N         -1.91270       -0.72760        1.40280
C         -2.91190       -1.59480        0.61250
H         -0.48370        1.29270        1.41850
H          0.51570        0.22090       -0.97020
H          0.88430       -0.53400        0.58070
H         -1.86950        0.07610       -0.63270
H         -1.36190       -2.79930       -0.75150
H         -1.54270       -2.76400        2.17630
H         -0.04040       -1.89330        1.72860
H         -3.58480       -1.01450       -0.02450
H         -3.46210       -2.29940        1.24150
