13
gdb 3458	4.73737	2.75582	2.70828	2.6297	53.39	-0.2288	-0.0207	0.2082	571.9308	0.103095	-344.434318	-344.428976	-344.428032	-344.463321	20.647
O         -0.00700       -0.00850        0.03580
C         -0.01000        1.18140       -0.02370
C         -1.06560        2.31830        0.04250
C         -0.02060        2.98670        1.00450
C          1.00450        2.35160        0.02270
O          0.73750        3.02960       -1.21300
C         -0.71780        3.03670       -1.26970
H         -2.11030        2.15470        0.29330
H         -0.01710        4.07800        1.03700
H         -0.00840        2.55130        2.00510
H          2.07330        2.26500        0.19640
H         -1.06050        2.49960       -2.16110
H         -1.07780        4.07080       -1.31200
