13
gdb 21479	5.13113	1.64459	1.24758	10.3832	66.62	-0.2315	-0.0501	0.1814	889.9875	0.097468	-390.960036	-390.952824	-390.95188	-390.991435	26.478
N          0.07170        1.36930        0.10590
C         -0.02980        0.02890        0.00100
N          1.09250       -0.69810       -0.12060
H          0.94630       -1.70030       -0.09020
H          1.99270       -0.32460        0.12850
C         -1.26240       -0.64230        0.01890
C         -2.60890       -0.23030        0.00580
N         -3.36450       -1.31550        0.02060
N         -2.51460       -2.39560        0.04160
N         -1.27360       -2.01660        0.04120
H          0.92220        1.84210       -0.15080
H         -0.77160        1.91690        0.10330
H         -3.04120        0.76090       -0.01830
