14
gdb 20389	4.90468	2.06435	1.48824	4.1989	63.64	-0.2036	0.0109	0.2145	793.9513	0.11082	-378.706255	-378.700313	-378.699368	-378.736277	22.941
C         -0.00140        1.43480        0.07060
C          1.48350        1.92890       -0.08700
C          2.22550        0.62450        0.01330
C          1.32620       -0.39010       -0.08410
N          0.01230       -0.02180       -0.26660
O          1.87920       -1.58870       -0.06760
N          3.29860       -1.37950        0.05160
C          3.45160       -0.06850        0.08140
H         -0.33380        1.57920        1.10610
H         -0.69120        1.96580       -0.58880
H          1.62790        2.41410       -1.06020
H          1.73080        2.66690        0.68140
H         -0.69630       -0.58650        0.18280
H          4.46150        0.31010        0.16680
