13
gdb 16792	3.61717	2.15425	1.48041	2.1987	58.91	-0.2615	-0.0308	0.2307	794.5805	0.097769	-398.668371	-398.662261	-398.661317	-398.69866	23.519
O          0.03940       -0.02720       -0.08330
C          0.03840        1.17380       -0.00050
N         -1.09760        1.97450        0.15050
C         -0.86670        3.34750        0.02300
O         -1.71890        4.19550       -0.03760
C          0.62810        3.51530       -0.03110
C          1.36630        2.98930        1.17880
C          1.21030        2.11730       -0.04620
H         -2.02650        1.58690        0.22850
H          1.02770        4.34540       -0.59710
H          2.35400        3.39870        1.35710
H          0.80510        2.74600        2.07420
H          2.07640        1.82660       -0.62430
