14
gdb 1960	7.86939	1.55277	1.3938	5.0584	56.39	-0.2411	0.0243	0.2654	834.4061	0.113161	-361.712798	-361.705598	-361.704654	-361.745193	24.546
O          0.29020        1.29810       -0.41160
C          0.01370       -0.00710        0.02040
C          0.10860       -0.28190        1.56040
N         -1.31410       -0.62240        1.52660
C         -1.51060       -0.27170        0.12100
C         -2.20680       -1.01210        2.46090
O         -3.38900       -1.19270        2.24970
H          1.24330        1.40030       -0.49810
H          0.54640       -0.75670       -0.57600
H          0.76920       -1.09850        1.87150
H          0.34020        0.62340        2.13390
H         -2.10660        0.63470       -0.02760
H         -1.91490       -1.08010       -0.49420
H         -1.72970       -1.16020        3.45220
