14
gdb 3479	5.87921	2.98078	2.80411	1.7976	59.57	-0.2115	0.0705	0.282	560.4801	0.113453	-287.318584	-287.31306	-287.312116	-287.347423	21.871
C         -0.04140        1.47330        0.02120
C          0.04290       -0.01190        0.02320
C          1.04450       -1.00190       -0.52090
C         -0.14290       -1.94740       -0.82140
C         -0.52490       -1.96710        0.61370
C          0.64840       -1.02240        0.96750
N         -1.13770       -0.94110       -0.30390
H          0.92760        1.91080        0.28440
H         -0.32830        1.84730       -0.96770
H         -0.78350        1.82390        0.74690
H          2.01930       -0.85670       -0.96510
H         -0.37490       -2.61760       -1.64080
H         -1.12890       -2.65640        1.19200
H          1.27230       -0.89530        1.84110
