18
gdb 16153	4.47341	1.62645	1.389	1.7662	71.69	-0.2418	0.0045	0.2464	945.3098	0.153846	-347.801189	-347.793713	-347.792769	-347.832854	28.836
C          0.01110        1.47980       -0.33650
C          0.00560        0.03230        0.17350
C         -1.38450       -0.54530        0.26460
C         -2.39770       -0.01820        1.28840
C         -3.31410       -1.20200        1.52080
C         -2.93660       -2.27700        0.82420
C         -1.74380       -1.95050       -0.01150
O         -1.99700       -0.90410       -0.98330
H          1.03320        1.85850       -0.42910
H         -0.46550        1.54030       -1.31940
H         -0.53050        2.14670        0.34250
H          0.59820       -0.59680       -0.49930
H          0.47940       -0.01990        1.16210
H         -1.90160        0.30120        2.21470
H         -2.94190        0.85220        0.90330
H         -4.18760       -1.14140        2.16040
H         -3.42610       -3.24290        0.82070
H         -1.02750       -2.70330       -0.32850
