20
gdb 7502	3.58339	1.20481	1.09272	2.0491	70.95	-0.2553	0.0668	0.3221	1165.9096	0.175744	-386.122707	-386.113582	-386.112638	-386.156493	33.683
O         -0.32900        1.44860        0.32930
C         -0.05800        0.06870        0.13690
C         -1.39500       -0.64670       -0.02220
C         -1.28860       -2.16800       -0.16980
O         -0.54520       -2.53480       -1.32130
C         -0.93440       -2.92050        1.15630
C         -2.44340       -3.23510        1.34060
C         -2.66940       -2.87000       -0.15120
H          0.50970        1.91270        0.40620
H          0.55940       -0.08410       -0.76410
H          0.49820       -0.34900        0.99210
H         -2.01480       -0.40480        0.84920
H         -1.90570       -0.24190       -0.90340
H          0.35570       -2.20970       -1.22370
H         -0.35460       -3.81900        0.93000
H         -0.43150       -2.35920        1.94850
H         -2.70360       -4.24990        1.64730
H         -2.93410       -2.53470        2.02120
H         -3.54050       -2.26150       -0.40710
H         -2.64280       -3.74880       -0.79960
