13
gdb 16607	3.30092	2.34458	1.54322	3.6339	59.1	-0.2344	-0.0952	0.1391	779.6379	0.09572	-398.595926	-398.589533	-398.588588	-398.626636	23.999
O          0.01620        0.01300       -0.31960
C         -0.04620        1.17220       -0.01940
C         -1.28840        2.02110        0.23160
N         -0.85260        3.35950        0.68560
C         -0.10560        3.30210        1.92690
C          0.63830        3.41470        0.62730
C          1.17840        2.13490        0.10180
O          2.30020        1.86680       -0.23730
H         -1.83300        2.12820       -0.71440
H         -1.96650        1.55890        0.95440
H         -0.15960        4.18640        2.55420
H         -0.06020        2.35860        2.47010
H          1.10070        4.35290        0.34250
