18
gdb 10033	2.32592	1.59447	1.01562	2.187	75.13	-0.245	-0.018	0.227	1181.8192	0.15264	-381.154661	-381.145475	-381.144531	-381.188692	31.979
C          0.04670        1.61090       -0.63460
C          0.03130        0.10440       -0.37200
N          0.94880       -0.64160       -1.23680
C          2.17710       -1.06350       -0.76500
O          3.00760       -1.66250       -1.40760
C          0.58560       -0.93360       -2.55070
N         -0.53070       -0.57280       -3.02740
C         -0.81760       -0.94410       -4.39840
H          1.04540        2.02900       -0.47440
H         -0.26250        1.82020       -1.66040
H         -0.64770        2.11430        0.04500
H          0.31600       -0.10910        0.66290
H         -0.97170       -0.29570       -0.53660
H          2.31820       -0.78760        0.29690
H          1.35890       -1.49480       -3.08200
H         -1.73330       -1.54560       -4.43060
H         -1.01100       -0.04190       -4.99010
H         -0.00950       -1.51320       -4.88370
