19
gdb 9339	5.08871	0.89569	0.79963	3.6	70.12	-0.2391	0.0389	0.278	1449.1964	0.164253	-402.2346	-402.224743	-402.223799	-402.270849	33.868
C          0.06540        1.46950        0.20220
C         -0.07930       -0.04930        0.09670
C         -1.54390       -0.48500        0.05450
O         -2.41710        0.20580       -0.44400
N         -1.79040       -1.71190        0.59730
C         -3.09200       -2.34810        0.55840
C         -3.00470       -3.73630       -0.05800
O         -2.09220       -4.48770        0.73670
H          1.11210        1.76970        0.10050
H         -0.52220        1.95390       -0.58010
H         -0.30190        1.83440        1.16620
H          0.38530       -0.40320       -0.83350
H          0.44580       -0.55510        0.91530
H         -1.02980       -2.26470        0.95820
H         -3.50570       -2.43510        1.57180
H         -3.75040       -1.70240       -0.02620
H         -4.00370       -4.19790       -0.06660
H         -2.65330       -3.65760       -1.09740
H         -1.93380       -5.33210        0.30540
