13
gdb 4610	5.65405	1.57235	1.23269	5.4795	65.07	-0.2102	-0.0553	0.1549	904.2327	0.096926	-398.649863	-398.643168	-398.642223	-398.680613	25.444
N          0.02870        1.44920        0.14980
C          0.00460        0.04580        0.03150
C         -1.13220       -0.68850       -0.00570
O         -1.14450       -2.03980       -0.01520
C          0.02110       -2.80910       -0.03100
O         -0.08870       -4.00720       -0.05910
C          1.25030       -2.03680       -0.00760
C          1.24090       -0.68520        0.03220
H          0.70040        1.88280       -0.47240
H         -0.87860        1.87370        0.00350
H         -2.13380       -0.27430       -0.01230
H          2.16840       -2.61030       -0.01290
H          2.17330       -0.12830        0.07150
