13
gdb 21634	5.2097	1.5202	1.17822	4.6964	66.24	-0.2252	-0.0356	0.1896	940.0083	0.097377	-394.817377	-394.810603	-394.809658	-394.848318	25.265
N         -0.04230        1.35750        0.14150
C          0.03080       -0.01690        0.03980
N         -1.06030       -0.76200        0.02780
N         -0.59140       -2.04900        0.00190
C         -1.43240       -3.15990       -0.01540
O         -2.63040       -3.12670       -0.00380
C          0.78240       -2.09400       -0.01560
C          1.22810       -0.80780        0.00920
H          0.69070        1.86180       -0.33420
H         -0.96130        1.72440       -0.06420
H         -0.83160       -4.08880       -0.04300
H          1.30870       -3.03540       -0.04000
H          2.24990       -0.46420        0.01680
