11
gdb 5061	3.61285	2.52024	1.77421	4.5143	58.25	-0.2615	-0.1133	0.1481	697.7962	0.073839	-393.595801	-393.589921	-393.588977	-393.625813	21.493
O         -0.10820        0.45560       -0.99470
C         -0.02800        1.29390       -0.14270
N         -1.16700        1.79180        0.54130
C         -1.45520        3.02720        0.37510
C         -0.63020        4.00960       -0.34690
N          0.65590        4.02560       -0.40330
C          1.42260        3.04560        0.22320
N          1.18090        1.79750        0.36530
H         -2.38130        3.40310        0.81750
H         -1.15540        4.84580       -0.81400
H          2.37520        3.42750        0.58920
