16
gdb 8393	3.94778	1.73704	1.50451	1.7408	65.55	-0.2483	-0.0253	0.223	878.497	0.12862	-383.688513	-383.680919	-383.679975	-383.721473	27.783
C         -0.11730        1.39660        0.36250
C         -0.01330       -0.03820       -0.09610
O          1.01190       -0.56250       -0.46670
C         -1.28990       -0.83560       -0.07460
C         -2.07290       -1.45740       -1.26640
C         -2.90580       -1.59550        0.02840
C         -1.64850       -2.08180        0.78470
O         -2.55120       -0.19740        0.38070
H          0.85920        1.87830        0.30580
H         -0.84730        1.93140       -0.25490
H         -0.50480        1.43130        1.38660
H         -2.45290       -0.73640       -1.99060
H         -1.66390       -2.35990       -1.72390
H         -3.94740       -1.88830        0.15480
H         -1.20380       -3.03700        0.50000
H         -1.65590       -1.90910        1.86120
