16
gdb 19168	3.96341	1.56018	1.29532	2.4751	60.06	-0.2636	0.0718	0.3354	946.3487	0.129322	-420.820616	-420.812826	-420.811882	-420.852995	28.519
O         -0.04070        1.63640        0.36570
C          0.02230        0.28320        0.75470
C         -1.17200       -0.51360        0.24460
C         -2.46380        0.15250        0.03880
O         -1.58820       -0.12010       -1.07040
C         -1.12520       -1.98800        0.51490
C         -1.49390       -2.97300       -0.50680
O         -0.12140       -2.72370       -0.19050
H         -0.21590        1.62830       -0.58440
H          0.93780       -0.20760        0.39020
H          0.04590        0.25910        1.85000
H         -3.38000       -0.43460        0.05210
H         -2.55880        1.20370        0.29710
H         -1.21970       -2.26060        1.56780
H         -1.87430       -3.94590       -0.19950
H         -1.81540       -2.61500       -1.48120
