15
gdb 12297	3.15057	2.29181	1.37578	5.4396	64.11	-0.2341	-0.028	0.2061	856.5523	0.122893	-396.028474	-396.0216	-396.020656	-396.059601	26.057
N         -0.07440        1.26720       -0.21240
C         -0.02810        0.00980       -0.02190
N         -1.17330       -0.75500        0.08210
C         -1.13000       -2.03360        0.76950
C          0.00550       -2.86170        0.18110
N          1.23570       -2.08570        0.23120
C          1.30490       -0.73650        0.04850
O          2.35650       -0.13200       -0.04050
H          0.88620        1.60210       -0.31220
H         -2.01010       -0.19840        0.19170
H         -0.97930       -1.92510        1.85560
H         -2.07960       -2.55220        0.61270
H          0.14070       -3.77740        0.76400
H         -0.24250       -3.14780       -0.85070
H          2.12420       -2.56390        0.18570
