19
gdb 10505	3.19768	1.34433	1.08382	3.326	71.83	-0.2371	-0.0185	0.2185	1137.4255	0.163796	-365.048479	-365.039428	-365.038484	-365.083228	32.204
C          0.79770       -1.65290        0.53200
C         -0.06100       -0.85430       -0.45220
C         -1.53150       -0.65490       -0.09350
C         -2.30620        0.14460       -1.13650
C         -1.84090        1.58490       -1.20360
O         -1.54100        2.16720       -2.21500
C         -2.27170       -1.65220        0.72190
N         -1.93750       -0.33030        1.28830
H          1.83270       -1.68510        0.18050
H          0.81590       -1.20320        1.53080
H          0.45480       -2.68700        0.63190
H          0.39170        0.13630       -0.59630
H         -0.02120       -1.33820       -1.43650
H         -2.22700       -0.30240       -2.13230
H         -3.36390        0.16340       -0.84480
H         -1.79880        2.08810       -0.21200
H         -3.33010       -1.82000        0.54010
H         -1.73910       -2.52110        1.09540
H         -1.14750       -0.42340        1.92130
