12
gdb 21063	6.86383	1.37477	1.15377	4.7328	64.38	-0.2799	-0.045	0.2349	956.2069	0.085874	-373.722055	-373.715124	-373.71418	-373.75444	23.524
C         -0.01700        1.43520        0.01900
N         -0.00940       -0.01680        0.00350
N          0.07560       -0.70590       -1.13190
C          0.09370       -1.97380       -0.73160
C          0.01840       -1.99510        0.67310
N         -0.04500       -0.72710        1.11410
C          0.00020       -3.11040        1.54980
N         -0.01140       -4.04470        2.23200
H          0.98470        1.81820       -0.19220
H         -0.71040        1.79390       -0.74230
H         -0.33580        1.75340        1.01000
H          0.15250       -2.79080       -1.43160
