16
gdb 16038	3.54087	1.74637	1.44044	4.7839	70.3	-0.2541	-0.0012	0.2529	904.5826	0.13128	-342.754762	-342.747378	-342.746434	-342.78621	27.757
C         -0.06600        1.58110        0.01980
C          0.04250        0.07730        0.11230
N          1.20610       -0.72470       -0.30090
C          2.45250        0.03100        0.09240
C          2.07550        0.03320        1.59260
C          0.77560       -0.66520        1.17650
C          0.20270       -1.77800        1.87250
N         -0.26080       -2.65640        2.46670
H          0.77960        2.10850        0.46440
H         -0.14610        1.88830       -1.02820
H         -0.97280        1.91250        0.53480
H         -0.86350       -0.43530       -0.20530
H          3.32470       -0.58210       -0.13640
H          2.55850        0.99810       -0.40550
H          2.71850       -0.61310        2.19010
H          1.96310        0.99230        2.10450
