18
gdb 16703	3.64586	1.83823	1.62357	0.7394	67.14	-0.2291	0.0702	0.2994	867.7888	0.154646	-384.913589	-384.906417	-384.905473	-384.944461	28.657
C         -0.09330        1.51180       -0.02060
C          0.08410        0.00540        0.07780
O          0.94740       -0.49530       -0.98730
C          1.91340       -1.26320       -0.25690
C          1.07880       -2.02360        0.79980
C          0.83410       -0.56010        1.29460
C          2.31280       -0.27820        0.88420
O          3.21030       -0.75600        1.86000
H          0.84320        2.05150        0.14150
H         -0.46870        1.77690       -1.01350
H         -0.82370        1.85410        0.72050
H         -0.90040       -0.47310       -0.02150
H          2.61960       -1.72830       -0.94480
H          0.22000       -2.59410        0.43880
H          1.68710       -2.60170        1.49220
H          0.45660       -0.32160        2.28810
H          2.56740        0.73740        0.55870
H          4.09340       -0.75120        1.47720
