10
gdb 21376	5.55601	2.36018	1.6565	5.7129	53.8	-0.2738	-0.0676	0.2062	670.5099	0.063527	-409.594958	-409.589907	-409.588962	-409.623997	19.402
N         -0.04670        1.35040        0.01020
C          1.28530        1.76000       -0.00070
N          2.17430        0.80420       -0.01460
C          1.39450       -0.33930       -0.01300
N          1.53200       -1.63900       -0.02140
O          0.23640       -2.10540       -0.01110
N         -0.72850       -1.08840        0.00380
C          0.00970       -0.02020        0.00230
H         -0.85770        1.94470        0.02180
H          1.52440        2.81520        0.00260
