13
gdb 5703	4.89945	2.1736	1.5346	1.7415	58.73	-0.2038	0.0127	0.2165	762.2774	0.098228	-398.608832	-398.602825	-398.601881	-398.639818	21.954
C          0.04500        1.35560       -0.12980
C          1.53030        1.84630        0.09970
C          2.12490        0.57330        0.62210
C          1.16730       -0.36240        0.65560
O         -0.07280       -0.07130        0.25870
O          1.63730       -1.52830        1.11530
C          2.97430       -1.21170        1.35830
N          3.30570        0.00890        1.08420
H         -0.67370        1.90200        0.48330
H         -0.25640        1.41550       -1.17690
H          1.97640        2.19670       -0.83710
H          1.56250        2.67930        0.81010
H          3.57790       -2.01510        1.74530
