17
gdb 2701	14.57341	0.81332	0.78528	1.3944	66.84	-0.2594	0.0554	0.3149	1386.747	0.146161	-309.682996	-309.674188	-309.673244	-309.716593	30.476
O         -0.07590        1.46810        0.01060
C          0.03080        0.05250        0.00190
C         -1.37900       -0.52330        0.01230
C         -1.39600       -2.05330        0.00430
C         -2.82890       -2.62300        0.01490
C         -2.86490       -4.08040        0.00760
C         -2.86700       -5.28240        0.00110
H          0.81210        1.83680        0.00400
H          0.57040       -0.30170       -0.89200
H          0.58730       -0.31130        0.88150
H         -1.90200       -0.14250        0.89840
H         -1.91880       -0.13310       -0.85950
H         -0.87140       -2.43340       -0.88040
H         -0.85460       -2.44280        0.87470
H         -3.36300       -2.24910        0.89850
H         -3.37980       -2.23980       -0.85420
H         -2.88220       -6.34380       -0.00460
