19
gdb 11378	3.71758	1.48752	1.20799	1.4885	72.52	-0.238	0.0319	0.2699	1073.7682	0.165705	-365.100142	-365.091595	-365.090651	-365.133991	30.644
C          0.42920        0.94680        0.64270
C         -0.36960        0.36150       -0.53280
C          0.50180       -0.30160       -1.55100
N          0.62120        0.02960       -2.77240
C          1.58160       -0.90830       -3.36710
C          2.04080       -1.82230       -2.19690
C          3.51210       -1.70690       -1.83120
O          1.22790       -1.35850       -1.08600
H          1.00500        0.16780        1.14840
H          1.12690        1.71540        0.29620
H         -0.24490        1.40520        1.37150
H         -1.08220       -0.38160       -0.15440
H         -0.93960        1.13840       -1.04630
H          1.10320       -1.47080       -4.17640
H          2.42170       -0.35900       -3.80880
H          1.77380       -2.87070       -2.36500
H          3.78280       -0.66070       -1.65610
H          3.73890       -2.28010       -0.92800
H          4.13340       -2.09020       -2.64750
