20
gdb 10960	5.13694	1.29759	1.17774	1.1506	76.08	-0.2403	0.0874	0.3277	1101.1524	0.176256	-348.971876	-348.963462	-348.962518	-349.004477	31.678
C         -0.17970        1.29750        0.07620
O          0.34210        0.00910       -0.15090
C          0.81430       -0.61210        1.01930
C         -0.23210       -1.20310        2.03260
C          0.40010       -2.58810        1.82350
C          0.63310       -3.59230        2.91470
C          0.29260       -2.94840        0.36970
C          1.38520       -2.00210        0.79740
H          0.57690        1.97370        0.50590
H         -0.49930        1.69610       -0.88990
H         -1.04650        1.28050        0.75460
H          1.52480        0.05100        1.53540
H         -0.10520       -0.81070        3.04510
H         -1.28410       -1.11040        1.74260
H         -0.31110       -4.03520        3.25490
H          1.27430       -4.41040        2.57000
H          1.11450       -3.13330        3.78620
H          0.63520       -3.94620        0.11260
H         -0.53010       -2.58570       -0.24030
H          2.43310       -2.22830        0.63880
