18
gdb 9406	4.81424	0.93169	0.82053	2.6655	65.69	-0.2603	-0.0357	0.2246	1386.7689	0.150764	-422.074111	-422.064656	-422.063712	-422.109556	32.482
C          0.05710        1.23690       -0.21110
C         -0.45240       -0.18340       -0.44540
O          0.20420       -0.85690       -1.50900
C          1.51530       -1.28660       -1.22110
C          1.98910       -2.15270       -2.40020
O          3.34690       -2.45820       -2.25920
C          1.16420       -3.42000       -2.50210
O          1.68720       -4.51000       -2.49180
H          1.09710        1.24890        0.12820
H         -0.01240        1.82480       -1.13110
H         -0.54820        1.72680        0.55850
H         -0.37160       -0.77640        0.47970
H         -1.50920       -0.15920       -0.73000
H          2.22040       -0.45090       -1.11340
H          1.54840       -1.87300       -0.28800
H          1.79990       -1.57310       -3.32120
H          3.39740       -3.42720       -2.29490
H          0.06940       -3.28970       -2.57830
