18
gdb 2545	3.09652	2.08544	1.4242	3.7788	65.74	-0.2384	0.0333	0.2717	911.9146	0.159134	-327.010419	-327.001811	-327.000866	-327.044137	29.767
C          0.10460        1.52450        0.11010
C         -0.05090        0.01260       -0.08400
N          0.63820       -0.50420       -1.25730
C          2.08630       -0.69880       -1.21900
C          2.48930       -2.06370       -0.65320
C         -0.04480       -0.85570       -2.38150
O          0.45280       -1.30590       -3.39400
H          1.15470        1.81180        0.21990
H         -0.30700        2.06860       -0.74520
H         -0.42520        1.84670        1.01220
H          0.31050       -0.51990        0.80460
H         -1.11250       -0.23770       -0.18410
H          2.44720       -0.60160       -2.24520
H          2.52870        0.10900       -0.62670
H          2.11160       -2.20640        0.36460
H          2.09540       -2.86490       -1.28390
H          3.57970       -2.15450       -0.62250
H         -1.13460       -0.68150       -2.27400
