13
gdb 4644	7.0947	1.26433	1.08032	4.6551	67.84	-0.2438	-0.0279	0.2159	1025.1239	0.096343	-361.517219	-361.510178	-361.509234	-361.548654	25.284
C          0.06750        1.48150        0.00480
C         -0.07590        0.00340        0.01510
C         -1.12480       -0.83920       -0.16190
C         -0.60050       -2.17560       -0.02900
C          0.73490       -2.03070        0.21970
O          1.06300       -0.72410        0.24870
C         -1.31010       -3.39710       -0.13220
N         -1.90000       -4.38980       -0.21850
H          0.76930        1.80860       -0.77010
H         -0.90140        1.94490       -0.19060
H          0.44030        1.85270        0.96560
H         -2.14850       -0.56830       -0.36220
H          1.52990       -2.73750        0.38790
