16
gdb 1077	6.54145	1.94185	1.69169	2.0863	66.65	-0.1997	0.0474	0.247	778.2199	0.138541	-288.67872	-288.671959	-288.671014	-288.709817	25.042
C         -0.01010        1.55020        0.00940
C         -0.02290        0.01860        0.00310
N         -1.36200       -0.54560        0.01270
C         -2.10920       -0.80690        1.13560
C         -3.35400       -1.23820        0.73840
C         -3.36590       -1.23420       -0.68340
C         -2.12800       -0.80050       -1.09900
H          1.01950        1.92190        0.00160
H         -0.52670        1.94620       -0.86950
H         -0.51040        1.93870        0.90090
H          0.49630       -0.36140       -0.88270
H          0.51230       -0.36890        0.87600
H         -1.68550       -0.66690        2.11790
H         -4.15810       -1.53690        1.39340
H         -4.18080       -1.52930       -1.32650
H         -1.72080       -0.65470       -2.08750
