16
gdb 20105	5.01648	1.56727	1.41966	0.4712	64.9	-0.236	0.0593	0.2953	898.2207	0.130303	-383.666007	-383.659088	-383.658143	-383.697415	26.145
C          0.37630        1.46350        0.16090
O          1.05760        0.30830       -0.33220
C         -0.29750        0.15730        0.09130
C         -0.50180       -0.67790        1.29970
C          0.51790       -1.00610        2.34080
C         -0.20920       -2.12960        1.62260
C         -1.65530       -2.17310        2.09920
O         -1.82880       -0.75080        1.83700
H          0.72090        1.82990        1.12580
H          0.14980        2.22410       -0.58420
H         -1.01380       -0.01200       -0.71310
H          1.54770       -0.87320        2.02660
H          0.30680       -0.78880        3.38470
H          0.30080       -2.88860        1.04580
H         -2.31660       -2.76270        1.45480
H         -1.84050       -2.42530        3.15010
