13
gdb 5173	5.9793	1.46401	1.17606	2.8904	63.98	-0.2061	-0.0074	0.1987	937.4761	0.096818	-398.650032	-398.643327	-398.642383	-398.68135	24.502
O          0.57810        2.49690        1.40220
C          0.19870        1.96450        0.38430
N          0.97920        1.19690       -0.43870
C          2.32210        0.91450       -0.22960
C          3.22780        1.24640        0.72970
C          4.44960        0.60870        0.32400
C          4.18850       -0.04820       -0.83160
O          2.87480        0.13150       -1.18770
H         -0.83540        2.03940       -0.00060
H          0.56450        0.79690       -1.26690
H          3.03650        1.85710        1.59330
H          5.39720        0.64340        0.83830
H          4.76830       -0.65680       -1.50350
