18
gdb 8029	3.53511	1.89402	1.54206	1.174	66.89	-0.2442	0.0659	0.31	880.2009	0.153093	-384.908087	-384.900251	-384.899307	-384.940647	29.802
C         -0.10980        1.57720        0.19660
C          0.04380        0.08540        0.06790
C         -1.19740       -0.83750        0.05670
C         -0.46300       -1.82170        1.02310
O         -0.28860       -3.15690        0.61950
C          0.78130       -0.87500        1.05920
C          1.76870       -1.08170       -0.08860
O          0.96270       -0.29540       -0.99750
H          0.86190        2.06130        0.33250
H         -0.56920        1.98770       -0.70980
H         -0.75040        1.83190        1.04710
H         -2.10480       -0.39850        0.48110
H         -1.42750       -1.24030       -0.93370
H         -0.94370       -1.87460        2.00320
H         -0.04660       -3.16090       -0.31260
H          1.17160       -0.59090        2.03600
H          2.75290       -0.62370        0.07250
H          1.91860       -2.11210       -0.43600
