17
gdb 15592	2.68299	2.0428	1.44605	3.623	67.06	-0.2754	0.0237	0.2991	905.2598	0.14385	-363.893031	-363.885248	-363.884304	-363.925898	28.646
O          0.45610        0.95620       -0.73160
C          0.07390       -0.13750        0.05770
C          0.39000       -0.04710        1.55670
C         -0.38690       -1.22600        2.16530
C         -1.65880       -1.40030        1.27850
C         -1.45730       -0.47050        0.04400
C         -2.21450        0.77480        0.15540
N         -2.76330        1.78870        0.25310
H         -0.01570        1.73840       -0.41850
H          0.59260       -1.00190       -0.37300
H          1.46360       -0.08130        1.75450
H          0.01140        0.90890        1.94140
H          0.22090       -2.13530        2.12640
H         -0.64090       -1.06050        3.21440
H         -1.77120       -2.43470        0.94610
H         -2.57160       -1.13840        1.81620
H         -1.74510       -0.95260       -0.89390
