22
gdb 16065	2.91487	1.66135	1.37367	0.2218	82.15	-0.2392	0.0852	0.3244	1052.5488	0.200456	-313.052425	-313.043766	-313.042822	-313.085219	33.265
C         -0.22270        1.52320        0.05820
C          0.11090        0.02840       -0.05090
C          0.81540       -0.50820        1.16650
C          2.29370       -0.22480        1.49660
C          2.45970       -1.69930        1.98360
C          0.98360       -1.95670        1.66030
C          0.07920       -0.99390        2.39140
C          0.27900       -0.50790        3.81220
H          0.68350        2.12080        0.20450
H         -0.71820        1.88700       -0.84750
H         -0.88650        1.71600        0.90750
H         -0.81260       -0.54180       -0.21520
H          0.73610       -0.13950       -0.93900
H          2.88310       -0.02200        0.59820
H          2.49600        0.56950        2.22240
H          3.13700       -2.26820        1.34280
H          2.76750       -1.85040        3.02360
H          0.59560       -2.87040        1.22260
H         -0.96750       -1.19070        2.15980
H          1.32930       -0.31560        4.04540
H         -0.27160        0.42290        3.98910
H         -0.08570       -1.24970        4.53180
