21
gdb 6292	3.83473	1.0782	0.99732	3.8558	76.64	-0.2393	0.0323	0.2716	1275.4958	0.186974	-366.298745	-366.288732	-366.287788	-366.334048	35.222
C         -0.02350        1.45110        0.30100
C         -0.03770       -0.05410        0.01280
C         -1.46990       -0.59350       -0.09150
C          0.73550       -0.39550       -1.27730
N          2.14150       -0.03160       -1.26610
C          3.05180       -0.77430       -0.41120
C          2.63600        0.93860       -2.08890
O          3.79650        1.28660       -2.15720
H          0.99680        1.83650        0.38340
H         -0.52710        2.00690       -0.49940
H         -0.54420        1.67480        1.23730
H          0.45520       -0.56980        0.84790
H         -2.01020       -0.11650       -0.91810
H         -1.48200       -1.67480       -0.26540
H         -2.03100       -0.39600        0.82690
H          0.64940       -1.47380       -1.47450
H          0.26420        0.12070       -2.12250
H          2.95990       -1.85100       -0.59890
H          4.06530       -0.44670       -0.64270
H          2.85120       -0.59080        0.65030
H          1.83760        1.38970       -2.71030
