16
gdb 8855	3.94984	1.22159	1.02957	1.4766	67.85	-0.2627	-0.0582	0.2045	1127.8875	0.126961	-383.71415	-383.704768	-383.703824	-383.748578	32.656
C          0.19590        1.41380        0.13960
C         -0.06190       -0.09750       -0.02030
C         -1.55340       -0.42870       -0.04620
O         -2.09440       -0.02840        1.20500
C          0.62490       -0.63360       -1.26690
O          0.02250       -1.08540       -2.21840
C          2.08010       -0.57310       -1.26140
C          3.28320       -0.53430       -1.24440
H          1.26420        1.62790        0.22180
H         -0.20110        1.96690       -0.71840
H         -0.30820        1.76880        1.04000
H          0.38890       -0.60710        0.84270
H         -2.03200        0.09850       -0.88410
H         -1.69010       -1.50510       -0.21970
H         -3.04240       -0.18630        1.18440
H          4.34600       -0.50610       -1.24570
