16
gdb 2847	5.93175	1.43292	1.26083	3.204	62.62	-0.2479	-0.026	0.2219	955.8041	0.13579	-325.763216	-325.755517	-325.754573	-325.795514	27.06
C         -0.06660        1.53600        0.02340
C          0.00990        0.02650        0.27840
C         -1.34930       -0.62830        0.15550
N         -1.80370       -1.00740       -1.17550
C         -1.57830       -2.07820       -0.17900
C         -0.45950       -3.01480       -0.47550
O         -0.37050       -4.11890        0.00120
H          0.91830        2.00210        0.11870
H         -0.44210        1.73820       -0.98450
H         -0.73760        2.02640        0.73760
H          0.70270       -0.43130       -0.43370
H          0.40750       -0.16680        1.28240
H         -2.09810       -0.21780        0.83470
H         -2.80010       -0.84900       -1.29440
H         -2.43250       -2.55600        0.29500
H          0.29460       -2.61870       -1.18920
