16
gdb 8343	4.92294	1.41295	1.33679	5.1026	69.25	-0.249	0.0323	0.2812	944.3547	0.132082	-342.729259	-342.722317	-342.721372	-342.760854	26.273
N         -0.01000       -1.15800       -0.02910
C          0.02420       -0.00680        0.05920
C          0.06320        1.45190        0.15340
C          1.46500        2.01430        0.01920
C          2.51220        1.75570       -1.09690
C          3.17590        2.63770       -0.01140
C          1.89160        3.51020        0.02010
N          2.56980        1.68730        1.01300
H         -0.57360        1.87120       -0.63450
H         -0.37390        1.75890        1.11110
H          2.87890        0.73180       -1.16310
H          2.32580        2.21470       -2.06900
H          4.21490        2.95820        0.05410
H          1.65340        4.11580       -0.86090
H          1.70660        4.05860        0.94910
H          2.39810        2.20460        1.88260
