11
gdb 23728	5.81857	1.56227	1.23159	4.7398	56.22	-0.2387	-0.0716	0.1671	852.1059	0.073433	-438.734862	-438.728878	-438.727934	-438.76522	22.351
F          0.01740       -0.01820        0.00270
C         -0.03490        1.31550        0.01070
C         -1.21620        1.98340        0.02990
N         -1.17430        3.33830        0.03680
C          0.01610        4.11050        0.02530
O         -0.05750        5.31770        0.03280
N          1.20140        3.38100        0.00580
C          1.16080        2.07940       -0.00080
H         -2.18280        1.49520        0.03990
H         -2.02790        3.87880        0.05090
H          2.11040        1.54260       -0.01620
