15
gdb 7302	4.52167	1.20145	0.98117	4.0079	62.06	-0.2547	0.0104	0.2651	1112.4977	0.119309	-396.028442	-396.01982	-396.018876	-396.06207	30.675
N         -0.84790        0.72930        0.28620
C          0.04490       -0.35650       -0.10930
C          0.97900       -0.06560       -1.31120
C          0.21250        0.26770       -2.50630
N         -0.43580        0.53910       -3.42420
C          0.90770       -0.84650        1.07390
N          0.37070       -0.58490        2.28800
O          1.95770       -1.43590        0.89470
H         -0.33080        1.59890        0.38740
H         -1.54910        0.88800       -0.43080
H         -0.59200       -1.20750       -0.38200
H          1.64920        0.76780       -1.07010
H          1.61480       -0.93610       -1.49080
H         -0.50220       -0.08540        2.34410
H          0.84190       -0.91480        3.11340
