14
gdb 12955	2.73094	2.22704	1.70281	3.2076	57.76	-0.2354	-0.0016	0.2338	803.6887	0.107678	-415.83357	-415.826169	-415.825225	-415.864962	27.734
N         -0.05030        1.46200       -0.16600
C         -0.06120        0.03360       -0.02430
C         -0.46730       -0.73620        1.18590
O         -1.50050        0.01210        1.88350
C         -2.37660       -0.15430        0.80600
O         -3.53470        0.10520        0.77460
C         -1.34080       -0.81400       -0.07800
N         -1.51350       -1.82040       -1.05330
H         -0.65750        1.88250        0.53280
H          0.88530        1.81220        0.01920
H          0.71550       -0.45610       -0.60750
H          0.04690       -1.50670        1.74370
H         -2.28500       -2.43810       -0.82350
H         -1.69450       -1.42070       -1.96810
