18
gdb 17277	5.95837	0.98909	0.92848	2.4804	68.94	-0.2615	0.0887	0.3501	1273.2692	0.152155	-384.898251	-384.889812	-384.888868	-384.932091	30.078
C          0.13310        1.43570       -0.38030
C         -0.10380        0.05920        0.18650
O          1.01440       -0.83410        0.25320
C          0.39740       -0.42590        1.48310
C          1.24870        0.37480        2.44260
C          2.23230       -0.51690        3.16690
C          2.62540       -0.28090        4.56000
O          1.69800       -1.31600        4.22830
H          1.04690        1.88920        0.00840
H          0.22300        1.38150       -1.47030
H         -0.71140        2.09370       -0.14780
H         -1.01370       -0.42000       -0.18280
H         -0.17230       -1.22080        1.96850
H          1.79930        1.15350        1.90590
H          0.60160        0.86370        3.18090
H          2.92940       -1.05170        2.52070
H          3.59770       -0.61880        4.91590
H          2.20530        0.56800        5.09900
