18
gdb 18405	3.30812	2.16747	1.47629	1.9459	66.9	-0.2536	0.0833	0.3369	865.8114	0.15679	-384.921392	-384.914773	-384.913829	-384.95192	26.596
C         -0.02040        1.52860        0.07830
C          1.30000        0.79810        0.02460
C          2.20490        0.72040        1.23910
O          2.66220       -0.60340        1.49330
C          1.76080       -1.40300        2.21130
O          0.62550       -1.83070        1.50740
C         -0.33380       -0.80940        1.25660
C          0.00800        0.01950        0.03350
H         -0.29770        1.99950        1.01700
H         -0.35270        2.06990       -0.80050
H          1.82790        0.81580       -0.92400
H          3.10250        1.32730        1.08410
H          1.69430        1.11460        2.13170
H          2.30890       -2.30950        2.47770
H          1.44350       -0.86590        3.12630
H         -1.29130       -1.32020        1.11440
H         -0.43480       -0.16830        2.14640
H         -0.26390       -0.44470       -0.90960
