18
gdb 9948	3.15127	1.51566	1.36378	2.4532	71.14	-0.2439	-0.0276	0.2163	1003.5535	0.151111	-384.947107	-384.938006	-384.937061	-384.98058	32.813
C         -0.03550        1.53430        0.16470
C          0.02000        0.03580       -0.03410
C          0.66630       -0.61830       -1.22610
C          1.32510        0.15690       -2.34550
C          1.36340       -0.68070        0.13650
O          2.50080        0.08990        0.32990
C          1.39410       -1.96280        0.85700
O          2.33770       -2.28710        1.54720
H          0.90670        2.01350       -0.10400
H         -0.83630        1.97570       -0.43800
H         -0.23580        1.77150        1.21420
H         -0.83690       -0.49860        0.37050
H          0.20090       -1.54890       -1.54380
H          1.91250        0.99430       -1.96700
H          2.00400       -0.49100       -2.90870
H          0.57440        0.54380       -3.04280
H          3.05560       -0.44180        0.92350
H          0.50510       -2.61480        0.73270
