14
gdb 20594	3.35026	1.87899	1.27185	2.81	60.	-0.2616	-0.0373	0.2243	908.7465	0.106316	-415.839817	-415.832121	-415.831177	-415.872304	27.078
C         -0.02400        1.48710       -0.18530
C         -0.08320        0.00960       -0.03720
C         -1.12100       -0.87830        0.02610
C         -2.60230       -0.65910       -0.04090
O         -2.98060        0.25570       -1.06280
N         -0.55770       -2.12770        0.15860
N          0.69650       -2.06080        0.18530
O          1.05570       -0.67690        0.05620
H          0.69360        1.76900       -0.96140
H         -1.01210        1.86170       -0.45590
H          0.29740        1.96060        0.74870
H         -3.09050       -1.63630       -0.15390
H         -2.97600       -0.21630        0.88860
H         -2.70850       -0.12130       -1.90660
