16
gdb 5218	5.69695	1.29591	1.1473	3.0644	69.45	-0.1873	0.0307	0.218	1057.0498	0.130654	-379.939319	-379.931266	-379.930322	-379.973015	28.652
C         -0.05260        1.46410       -0.24830
C         -0.06090       -0.03170        0.08730
N         -1.40970       -0.57830        0.06900
C         -1.81470       -1.18260       -0.96220
N         -3.06100       -1.75160       -1.15080
C         -3.11200       -2.37390       -2.39490
C         -1.93030       -2.15910       -2.98060
O         -1.11510       -1.42360       -2.13700
H          0.95660        1.87910       -0.15200
H         -0.39530        1.63360       -1.27420
H         -0.71850        2.01160        0.42540
H          0.61380       -0.56340       -0.59850
H          0.33820       -0.17040        1.09940
H         -3.74270       -1.79690       -0.41610
H         -3.98540       -2.89440       -2.74720
H         -1.52130       -2.42740       -3.93800
