19
gdb 20071	4.61131	1.44697	1.24954	2.2624	71.56	-0.2378	0.0825	0.3203	1011.8155	0.166986	-365.030801	-365.023206	-365.022262	-365.063848	28.107
C         -0.21290        1.07230       -0.36620
C          1.20480        0.64870       -0.19610
N          0.11110       -0.23930        0.18240
C         -0.11480       -0.42100        1.61610
C         -1.53910       -0.94970        1.86150
C         -1.32950       -2.46210        1.76470
O         -0.08210       -2.69080        2.40740
C          0.76830       -1.57680        2.15100
H         -0.58760        1.83410        0.31620
H         -0.67510        1.07590       -1.34910
H          1.79740        0.33770       -1.05150
H          1.77150        1.13040        0.59990
H          0.07550        0.51330        2.17000
H         -1.87250       -0.68060        2.86850
H         -2.25510       -0.55630        1.13640
H         -2.08810       -3.05250        2.28620
H         -1.29600       -2.77960        0.71150
H          1.53240       -1.83420        1.40540
H          1.27150       -1.31410        3.08840
