13
gdb 5210	9.0929	1.04194	0.94032	1.5331	75.02	-0.2273	-0.0281	0.1992	1190.0765	0.095766	-361.472352	-361.464961	-361.464017	-361.505971	25.207
C         -0.08990        1.43310        0.01080
C         -0.01450       -0.01750        0.00270
C          0.05390       -1.22100       -0.00410
C          0.13500       -2.62700       -0.01210
N          1.19680       -3.38370       -0.02250
C          0.70440       -4.67540       -0.02640
C         -0.65070       -4.63700       -0.01810
O         -1.03650       -3.33300       -0.00880
H          0.91200        1.87480        0.00360
H         -0.62850        1.80560       -0.86750
H         -0.61170        1.79650        0.90300
H          1.35840       -5.53270       -0.03490
H         -1.43560       -5.37350       -0.01730
