13
gdb 8784	4.51715	1.27831	1.00859	3.9829	60.35	-0.2814	-0.1322	0.1492	1093.6975	0.092354	-398.62952	-398.620854	-398.61991	-398.663848	28.598
C          0.04990        1.54860        0.00890
C         -0.03710        0.02480        0.00310
C         -1.45430       -0.48690        0.01300
O         -2.45050        0.19240        0.02510
C         -1.61680       -2.02260        0.00690
O         -0.68990       -2.78980       -0.00500
C         -3.01420       -2.49230        0.01770
N         -4.09080       -2.91320        0.02560
H          1.09440        1.86920        0.00160
H         -0.44860        1.97290       -0.86630
H         -0.43410        1.96540        0.89580
H          0.46570       -0.41420       -0.86930
H          0.48030       -0.42150        0.86320
