18
gdb 9248	5.02713	0.77308	0.71664	3.9045	80.82	-0.2617	-0.0566	0.2051	1589.0334	0.150999	-347.793323	-347.783443	-347.782499	-347.829891	33.224
C         -0.02920        1.51550        0.18040
C          0.08930       -0.00670        0.07170
C          0.70600       -0.49130       -1.26720
C          2.17320       -0.04810       -1.45080
C          0.60420       -1.94450       -1.36000
C          0.54190       -3.15130       -1.39900
C          0.43410       -4.58330       -1.48600
O          1.04410       -5.36450       -0.79120
H          0.94780        2.00730        0.17600
H         -0.61670        1.92870       -0.64730
H         -0.53050        1.79250        1.11250
H          0.69440       -0.40100        0.89640
H         -0.90360       -0.45730        0.17480
H          0.11240       -0.05660       -2.08420
H          2.79470       -0.43060       -0.63570
H          2.57830       -0.42640       -2.39270
H          2.24600        1.04210       -1.46320
H         -0.27400       -4.93750       -2.26350
