16
gdb 10648	3.08745	1.65359	1.30701	2.5112	67.72	-0.2288	0.0365	0.2653	959.0454	0.128566	-383.679631	-383.671252	-383.670308	-383.712016	31.775
O          0.77090       -0.13100       -0.66240
C         -0.17770        0.28960        0.31820
C         -1.55180       -0.37570        0.17420
C         -2.02620       -0.83610       -1.21210
C         -1.60510       -1.85930       -0.19740
O         -0.44950       -2.61280       -0.32840
C         -2.52590        0.13590        1.09390
C         -3.32170        0.57980        1.88060
H          0.58230        0.33230       -1.48430
H          0.25330        0.01380        1.28510
H         -0.29280        1.38040        0.30370
H         -3.07740       -0.71690       -1.44720
H         -1.35180       -0.66740       -2.04570
H         -2.38840       -2.44240        0.27470
H          0.25480       -2.01810       -0.62760
H         -4.03010        0.96130        2.57340
