11
gdb 21908	5.69558	1.64692	1.27752	4.4059	55.92	-0.2593	-0.0873	0.172	845.0994	0.072431	-434.545669	-434.539476	-434.538532	-434.57609	23.213
O         -0.09060        1.35170        0.01070
C          0.00310        0.00920        0.00290
N          1.17840       -0.52070       -0.00730
O          1.24500       -1.91090       -0.01520
C          0.13330       -2.73810       -0.01240
O          0.31100       -3.92650       -0.02110
C         -1.16450       -2.06430       -0.00130
C         -1.23660       -0.72520        0.00640
H          0.81070        1.70640        0.00710
H         -2.03530       -2.70790        0.00030
H         -2.17060       -0.17530        0.01500
