17
gdb 20824	3.14375	1.78763	1.24738	3.2243	69.83	-0.2495	-0.0008	0.2487	992.9379	0.141919	-363.873976	-363.865853	-363.864909	-363.906962	29.121
C         -0.10260        1.57470        0.00860
C          0.06240        0.04510       -0.02170
C          0.74740       -0.50930        1.19200
C          2.03190       -0.92760        1.33020
O          2.27380       -1.34780        2.58060
N          1.10610       -1.21430        3.32580
C          0.20900       -0.71890        2.50570
C         -1.18140       -0.45950        2.99150
H          0.87100        2.07020        0.07110
H         -0.60940        1.92830       -0.89460
H         -0.69340        1.89560        0.87210
H         -0.92460       -0.42160       -0.12940
H          0.63000       -0.23880       -0.91470
H          2.86340       -0.98860        0.64410
H         -1.42020        0.60890        2.96270
H         -1.91850       -0.97570        2.36720
H         -1.28810       -0.80990        4.01980
