18
gdb 17194	3.36792	2.19612	1.60485	1.4835	72.96	-0.2169	0.0756	0.2925	846.9246	0.154427	-343.866822	-343.859741	-343.858797	-343.897653	28.219
C          0.06360        1.47290       -0.30670
N          0.03540        0.03700       -0.03280
C         -1.04220       -0.50260        0.89390
C         -0.11800       -1.74190        1.06750
C          0.78060       -0.48060        1.18960
C         -0.31150        0.10840        2.10900
C         -0.49020        1.29340        2.95770
N         -0.48730       -0.07850        3.53690
H          1.02900        1.71580       -0.76330
H         -0.71370        1.69830       -1.04480
H         -0.08250        2.13290        0.55860
H         -2.10170       -0.47080        0.63080
H         -0.25000       -2.33970        1.96940
H          0.03450       -2.32940        0.16220
H          1.86620       -0.42200        1.27580
H          0.35980        1.90660        3.24580
H         -1.43350        1.83240        2.90380
H         -1.43890       -0.36960        3.74980
