18
gdb 4782	5.51804	1.22946	1.08265	1.3046	76.44	-0.1805	0.0563	0.2368	1141.6766	0.154813	-344.015697	-344.007108	-344.006164	-344.049194	31.141
C         -0.69780        0.96590       -0.08870
N          0.55060        0.19650       -0.17530
C          0.94740       -0.45080        1.01060
C          1.83680       -0.11880        2.00960
C          1.85790       -1.19250        2.95440
C          2.67740       -1.27150        4.20710
C          0.96750       -2.13690        2.49950
N          0.41980       -1.68040        1.32140
H         -0.67220        1.76420        0.66890
H         -0.91320        1.41070       -1.06470
H         -1.52290        0.29330        0.16240
H          1.30100        0.79130       -0.50380
H          2.40340        0.79950        2.06680
H          2.45180       -0.44910        4.89680
H          2.49120       -2.20820        4.74130
H          3.75210       -1.22170        3.99430
H          0.67830       -3.08770        2.91850
H         -0.18630       -2.19700        0.70830
