16
gdb 9169	7.96176	0.8089	0.74446	1.3441	70.19	-0.248	0.0156	0.2636	1510.4035	0.12726	-383.750595	-383.740759	-383.739815	-383.787845	31.697
C         -0.03220        1.34100        0.24180
O         -0.04090       -0.06230       -0.04950
C          0.67680       -0.42910       -1.13220
O          1.29040        0.33600       -1.82470
C          0.57100       -1.94260       -1.31160
C          1.30700       -2.45970       -2.45270
C          1.91080       -2.90390       -3.39290
C          2.64670       -3.42580       -4.53480
H          0.98630        1.68890        0.43150
H         -0.44700        1.91060       -0.59370
H         -0.64980        1.46340        1.13160
H          0.90960       -2.40560       -0.37580
H         -0.49650       -2.18810       -1.38140
H          3.40560       -4.15180       -4.22290
H          1.97960       -3.92700       -5.24470
H          3.15890       -2.62040       -5.07230
