18
gdb 7911	3.28821	1.70204	1.20417	4.1679	75.97	-0.2298	-0.0364	0.1933	1018.4987	0.153411	-347.858579	-347.850416	-347.849472	-347.891272	30.273
C         -0.09310        1.55950        0.03500
C          0.03220        0.02730        0.01180
C          0.79920       -0.51350       -1.21390
C          1.94250       -1.37010       -0.64720
O          2.75600       -1.98640       -1.29780
C          1.84370       -1.29010        0.82190
C          0.80260       -0.53220        1.20120
C          0.37690       -0.24360        2.60440
H          0.89560        2.03130        0.02910
H         -0.63910        1.91100       -0.84570
H         -0.63130        1.91030        0.92080
H         -0.98500       -0.38890        0.03960
H          0.17960       -1.12130       -1.87940
H          1.22430        0.28910       -1.82570
H          2.53580       -1.80380        1.47830
H          0.98440       -0.78630        3.33210
H          0.45190        0.82750        2.82730
H         -0.67480       -0.51790        2.75500
