20
gdb 17057	3.64779	1.44338	1.24067	1.6301	75.17	-0.251	0.073	0.324	1063.7785	0.177502	-348.951391	-348.943417	-348.942473	-348.983668	30.999
C         -0.02730        1.57960        0.02490
C          0.00610        0.05700        0.20710
C         -1.37370       -0.57330        0.04990
C         -2.05070       -0.77850       -1.35160
C         -1.09960       -1.98900       -1.56960
C         -1.57800       -2.11950       -0.09530
C         -3.00390       -1.80810       -0.65950
O         -4.06810       -1.41740        0.15750
H          0.96140        2.02050        0.18500
H         -0.35480        1.85080       -0.98440
H         -0.71910        2.04920        0.73340
H          0.72830       -0.37550       -0.49180
H          0.37990       -0.17960        1.21220
H         -2.02980       -0.10260        0.79560
H         -2.32200       -0.01110       -2.07880
H         -1.44570       -2.76040       -2.26360
H         -0.04590       -1.76980       -1.73130
H         -1.30220       -2.89290        0.62410
H         -3.41020       -2.57420       -1.32470
H         -3.77230       -0.73360        0.76660
