18
gdb 10650	2.20567	1.94076	1.24214	2.8739	69.12	-0.2477	-0.0223	0.2253	1026.5131	0.151668	-384.937598	-384.928552	-384.927608	-384.971268	32.345
C         -0.09480        1.36510       -0.17070
C          0.18360       -0.10710        0.03650
C          1.56410       -0.66710        0.02720
C          0.77440       -0.66650        1.33810
C          1.21710        0.21830        2.48260
O          2.24190       -0.39450        3.25450
C          0.22090       -1.98890        1.75150
O         -0.08780       -2.87040        0.98350
H          0.71960        1.99910        0.18960
H         -0.21890        1.57100       -1.23940
H         -1.01490        1.67600        0.33490
H         -0.56900       -0.77240       -0.37820
H          1.72530       -1.63550       -0.43310
H          2.39520        0.02980       -0.03930
H          1.52900        1.20510        2.11460
H          0.39000        0.38190        3.18320
H          2.96550       -0.60900        2.65580
H          0.09630       -2.11570        2.84820
