16
gdb 6198	3.7274	1.6817	1.56744	3.088	60.85	-0.2707	0.0071	0.2777	882.316	0.128895	-420.932345	-420.924506	-420.923561	-420.964469	28.902
C          0.06450        1.45310        0.12240
C         -0.06170       -0.06210       -0.01150
C         -1.49740       -0.55180       -0.07150
O          0.63020       -0.53090       -1.16760
C          1.90440       -0.98360       -0.76820
C          1.78960       -1.19800        0.73500
O          2.56610       -1.71150        1.48320
O          0.59560       -0.68040        1.11510
H          1.11710        1.74780        0.15170
H         -0.41090        1.94030       -0.73250
H         -0.41700        1.79690        1.04130
H         -1.98410       -0.14920       -0.96340
H         -1.51360       -1.64240       -0.12210
H         -2.05080       -0.22490        0.81210
H          2.14970       -1.91960       -1.27760
H          2.70120       -0.25500       -0.97820
