18
gdb 10160	2.57152	1.24007	0.88055	2.1288	70.	-0.2577	-0.0545	0.2032	1302.6014	0.150183	-384.963514	-384.954002	-384.953058	-384.998911	32.211
C         -0.11240        1.66600       -0.23610
C         -0.11590        0.14380       -0.07530
C          0.65610       -0.57190       -1.19020
C          0.66170       -2.09210       -1.04190
C          1.09700       -2.82960       -2.31440
O          1.34650       -2.28680       -3.35620
C          1.54230       -2.60190        0.09580
O          1.50470       -3.72850        0.51670
H          0.90790        2.06420       -0.21510
H         -0.56240        1.96190       -1.19000
H         -0.67670        2.15200        0.56530
H          0.30780       -0.12160        0.90280
H         -1.15080       -0.22320       -0.06300
H          0.23430       -0.31660       -2.16720
H          1.69380       -0.21270       -1.21610
H         -0.34530       -2.48340       -0.82980
H          1.15910       -3.93090       -2.18980
H          2.27030       -1.85720        0.48950
