20
gdb 10402	2.48442	1.88273	1.34766	0.6498	80.73	-0.2528	0.0518	0.3047	1021.5615	0.17572	-311.832704	-311.823853	-311.822909	-311.865707	33.544
C          0.15660        1.41650        0.23010
C          0.08020       -0.07270       -0.11170
C          0.69520       -0.44860       -1.47720
C          2.26800       -0.40690       -1.47280
C          2.29450       -1.94010       -1.24360
C          0.80110       -2.00660       -1.65530
C          0.04300        0.26110       -2.56540
C         -0.49370        0.83440       -3.47760
H          1.19280        1.76920        0.26650
H         -0.37330        2.01590       -0.51560
H         -0.29370        1.61300        1.20800
H          0.58990       -0.65920        0.66320
H         -0.96720       -0.39850       -0.10900
H          2.66300       -0.12260       -2.45000
H          2.73000        0.22660       -0.71160
H          2.99650       -2.51420       -1.85150
H          2.45520       -2.20670       -0.19600
H          0.12680       -2.59980       -1.03200
H          0.66690       -2.30040       -2.69810
H         -0.96500        1.34110       -4.28280
