15
gdb 5862	4.7493	0.91106	0.905	5.9719	75.35	-0.2818	-0.0441	0.2377	1300.797	0.116011	-362.651824	-362.642743	-362.641798	-362.685403	32.229
C         -0.03610        1.54550        0.00590
C         -0.01150        0.00420        0.02420
C          0.73920       -0.52970        1.26020
O         -1.34090       -0.51770       -0.01770
C          0.64700       -0.48580       -1.19360
C          1.22900       -0.86520       -2.18100
C          1.88170       -1.29780       -3.29990
N          2.44040       -1.66340       -4.25040
H          0.97510        1.95910       -0.03130
H         -0.59820        1.90120       -0.86000
H         -0.52230        1.91120        0.91720
H          0.25130       -0.15950        2.16870
H          0.71790       -1.62130        1.26910
H          1.77940       -0.19350        1.26990
H         -1.79260       -0.20830        0.77580
