18
gdb 9640	4.00847	1.18902	1.08595	5.2512	73.38	-0.2492	0.0306	0.2798	1153.6325	0.153143	-343.982509	-343.973411	-343.972467	-344.016344	32.782
C          0.24230        1.44610        0.20120
C         -0.15000       -0.00250       -0.11440
C          0.56440       -0.54320       -1.33380
C          1.95200       -1.11530       -1.24360
C          0.79040       -2.05450       -1.50900
N          0.43480       -3.03850       -0.51810
C          0.65270       -2.54540       -2.86590
N          0.51840       -2.91080       -3.95520
H          1.31640        1.53060        0.39540
H          0.00360        2.11110       -0.63530
H         -0.29120        1.81380        1.08280
H          0.06480       -0.63860        0.75190
H         -1.23420       -0.06110       -0.27580
H          0.34100       -0.01590       -2.25750
H          2.65690       -0.93520       -2.04610
H          2.40530       -1.19930       -0.25980
H          0.93380       -2.89670        0.34980
H         -0.56060       -3.03820       -0.32370
