14
gdb 18936	3.79883	2.55487	2.04637	1.4654	54.89	-0.239	0.043	0.282	672.5965	0.108934	-419.609711	-419.604305	-419.603361	-419.638986	22.526
O          0.06870        1.35850       -0.01720
C         -0.01050       -0.03770       -0.01040
C          0.38040       -0.67430        1.34820
O         -0.53220        0.05390        2.23610
C         -1.56670       -0.74480        1.63610
C         -0.61980       -1.90720        1.32570
O         -1.11340       -2.07950       -0.00520
C         -1.43160       -0.65660        0.05090
H         -0.20640        1.63810        0.86800
H          0.54020       -0.43120       -0.86610
H          1.41260       -0.68490        1.68990
H         -2.52660       -0.75130        2.14700
H         -0.43600       -2.81310        1.89920
H         -2.20660       -0.33160       -0.63890
