18
gdb 19076	3.86608	1.73903	1.4708	1.4159	71.42	-0.2025	0.072	0.2745	917.3583	0.153464	-347.721993	-347.714549	-347.713605	-347.753099	29.632
C          0.00080        1.52140        0.03520
C          0.00890        0.00660        0.03500
C          1.34650       -0.64380       -0.23410
C          0.76270       -0.64760        1.16690
C          0.75960       -2.19890        1.17970
C          0.06480       -2.89580        0.05990
O         -1.22420       -2.58410       -0.39710
C          1.35800       -2.19460       -0.25300
H          0.94210        1.92610        0.42450
H         -0.13610        1.91560       -0.97780
H         -0.81140        1.91020        0.65890
H         -0.89590       -0.45850       -0.32940
H          2.19050       -0.07110       -0.59810
H          1.10000       -0.08210        2.02660
H          1.10180       -2.75010        2.04770
H          0.23160       -3.97480        0.12740
H         -1.24790       -2.77030       -1.34240
H          2.21430       -2.74790       -0.62200
