22
gdb 13137	3.8129	1.08063	0.92578	1.8142	78.34	-0.2391	0.0834	0.3224	1343.3939	0.19946	-350.197599	-350.188188	-350.187244	-350.232365	33.867
C         -0.18000        1.57300        0.03030
C         -0.03170        0.04960       -0.00040
C          0.69310       -0.45910       -1.25320
C          0.81540       -1.97980       -1.28920
C         -0.46270       -2.75710       -1.67720
O          0.11680       -3.19000       -2.92260
C          1.41130       -2.64800       -2.56370
C          2.01870       -1.81370       -3.67420
H          0.79790        2.06670        0.00390
H         -0.75340        1.93230       -0.83140
H         -0.69650        1.90610        0.93580
H          0.51320       -0.28560        0.89210
H         -1.02500       -0.41480        0.06000
H          0.15820       -0.10850       -2.14550
H          1.69370       -0.00810       -1.29840
H          1.28390       -2.33020       -0.36440
H         -0.71410       -3.60380       -1.02440
H         -1.36630       -2.15380       -1.83500
H          2.10160       -3.46570       -2.30640
H          1.37100       -0.97910       -3.95380
H          2.99410       -1.41720       -3.37180
H          2.16840       -2.43840       -4.56060
