16
gdb 14885	5.01882	1.41334	1.14492	0.764	76.19	-0.2304	-0.0183	0.2121	1013.5106	0.130827	-346.580037	-346.572675	-346.57173	-346.611539	28.037
C          0.08520       -1.21840       -0.00170
C         -0.01010       -0.01700        0.00600
C         -0.05700        1.40400        0.01610
C         -1.21430        2.08260        0.01140
C         -1.26990        3.58180        0.06260
O         -0.02740        4.18910        0.34750
C          1.03750        3.61020       -0.38810
C          1.26290        2.15550        0.02430
H          0.15060       -2.27810       -0.00660
H         -2.16290        1.55620       -0.03130
H         -1.68360        3.96670       -0.88950
H         -1.95790        3.90610        0.85330
H          0.82940        3.66410       -1.46950
H          1.92010        4.22200       -0.18300
H          1.71240        2.10700        1.02380
H          1.96870        1.67420       -0.66190
