11
gdb 925	5.7214	2.8745	1.91326	4.4021	55.47	-0.2389	-0.06	0.1788	608.2681	0.080268	-343.312201	-343.306972	-343.306028	-343.34119	19.65
O         -0.04890       -0.05110        0.00390
C          0.03140        1.14570        0.00880
O         -1.18200        1.87700        0.02890
C         -1.21210        3.21530        0.03620
C         -0.10280        3.98300        0.02540
C          1.16260        3.31830        0.00510
C          1.22700        1.96420       -0.00270
H         -2.22710        3.59640        0.05170
H         -0.18580        5.06090        0.03210
H          2.07540        3.90580       -0.00390
H          2.16480        1.42370       -0.01800
