10
gdb 1385	5.47598	1.4411	1.14904	5.2638	60.31	-0.2983	-0.1067	0.1917	950.1786	0.064536	-322.167165	-322.15959	-322.158646	-322.201365	23.824
C          0.03640        1.45210        0.00880
C          0.00990        0.00260        0.01090
C         -0.01930       -1.20450        0.01160
C         -0.04880       -2.63580        0.01250
O         -1.04720       -3.31720        0.06430
C          1.28620       -3.26350       -0.05730
N          2.32810       -3.76190       -0.11180
H          1.06020        1.83060        0.08610
H         -0.40450        1.83980       -0.91610
H         -0.54520        1.84940        0.84730
