16
gdb 14427	4.02538	1.87614	1.68085	1.8581	63.92	-0.2322	0.0703	0.3026	808.0019	0.130954	-383.676521	-383.669711	-383.668767	-383.706998	27.377
O         -0.11370        1.46920       -0.07010
C         -0.01200        0.06350       -0.09300
C         -1.32090       -0.69790       -0.11950
C         -1.75310       -0.83410       -1.60660
C         -0.69690       -0.11120       -2.44020
C          0.34480       -0.65980       -1.43090
C         -0.72940       -1.76100       -0.99860
O         -0.66580       -3.10810       -0.76260
H          0.77570        1.83640       -0.03850
H          0.62550       -0.30780        0.72140
H         -2.04170       -0.82700        0.67680
H         -2.78990       -1.03710       -1.84180
H         -0.58390       -0.56230       -3.43010
H         -0.76090        0.97750       -2.52190
H          1.38200       -0.82860       -1.71500
H         -0.62320       -3.56540       -1.61010
