15
gdb 19649	4.92813	1.80456	1.69221	2.138	63.1	-0.2205	0.0565	0.2771	792.2545	0.118835	-362.527552	-362.521014	-362.52007	-362.558417	25.2
O          0.04790        1.33340       -0.26070
C         -0.00030       -0.03470        0.11040
C         -1.38000       -0.58350        0.01290
C         -2.28880       -0.97940       -1.12410
C         -3.46680       -0.41060       -0.29670
C         -3.18010       -1.35640        0.81240
C         -1.99140       -1.96140        0.02400
N         -2.54510        0.01120        0.81800
H         -0.61630        1.78590        0.27240
H          0.66690       -0.57560       -0.57020
H          0.37960       -0.18270        1.13460
H         -2.09420       -1.08390       -2.18170
H         -4.35600        0.15260       -0.55270
H         -3.78990       -1.71460        1.63320
H         -1.53690       -2.94110       -0.01300
