14
gdb 13737	3.23041	1.62769	1.34742	3.5258	64.72	-0.2517	-0.0334	0.2183	944.185	0.10324	-382.49314	-382.484774	-382.48383	-382.52658	29.278
C          0.06240        1.52730       -0.57830
C         -0.00130        0.24170        0.22230
O          0.93100       -0.20160        0.84480
C         -1.34440       -0.45570        0.20240
O         -1.39920       -1.78470        0.68770
C         -2.04440       -0.78910        1.47900
C         -1.50160       -0.48380        2.77320
C         -1.11160       -0.22020        3.87840
H          1.02780        2.00940       -0.42360
H         -0.07410        1.31470       -1.64530
H         -0.74580        2.20640       -0.28260
H         -1.97790       -0.25020       -0.66230
H         -3.13340       -0.82300        1.43430
H         -0.74230        0.00570        4.84850
