18
gdb 9832	3.78542	1.55283	1.22336	1.6219	69.27	-0.2658	0.0172	0.283	1030.0328	0.152412	-384.970167	-384.961365	-384.960421	-385.003672	31.588
C          0.24130        1.37120        0.09730
O          0.34670       -0.05680        0.06970
C          0.48930       -0.59860       -1.15850
O          0.52690        0.06280       -2.17030
C          0.59230       -2.08840       -1.10220
C          0.52710       -2.76410        0.25200
C         -0.00610       -2.79450       -2.31250
C          1.47840       -2.68710       -2.18750
H          1.13640        1.83260       -0.32740
H         -0.62790        1.70510       -0.47500
H          0.13390        1.64040        1.14820
H         -0.41900       -2.55320        0.75890
H          0.61530       -3.84860        0.13650
H          1.33590       -2.42640        0.90670
H         -0.47890       -3.75250       -2.12670
H         -0.49240       -2.16730       -3.04980
H          1.98590       -1.98810       -2.84110
H          2.04560       -3.57000       -1.91420
