18
gdb 12831	3.11759	2.35544	1.73367	1.3299	74.09	-0.2243	0.0095	0.2337	826.4183	0.154251	-347.781067	-347.773909	-347.772965	-347.811974	28.313
C         -0.06380        1.64030       -0.19090
C         -0.04170        0.13230        0.03390
C          1.07180       -0.60410       -0.81200
C          1.97940       -0.61140        0.47870
C          0.67910       -0.42100        1.22750
C         -0.16450       -1.06270        2.02550
C         -1.56290       -0.87710        1.45300
O         -1.36970       -0.37200        0.11870
H          0.94810        2.05700       -0.21670
H         -0.54820        1.86470       -1.14670
H         -0.62480        2.14040        0.60400
H          0.75180       -1.61180       -1.08100
H          1.46030       -0.07910       -1.68870
H          2.55550       -1.51130        0.69940
H          2.64590        0.25570        0.50490
H          0.05450       -1.74440        2.83780
H         -2.09730       -1.83460        1.39310
H         -2.19680       -0.18520        2.03100
