12
gdb 12661	3.52292	2.02553	1.33404	3.2948	51.11	-0.2669	-0.0974	0.1696	832.4332	0.083332	-455.649017	-455.642033	-455.641089	-455.680537	24.819
O          0.17320        1.29120        0.46170
C          0.01860       -0.03460        0.05570
C         -1.44350       -0.46190       -0.15760
O         -1.39930       -1.51440       -1.15420
C         -0.27910       -1.44450       -1.91590
O         -0.05850       -2.13920       -2.85930
C          0.59980       -0.33310       -1.31050
O          1.50950        0.24390       -1.83860
H          0.93350        1.64470       -0.02200
H          0.48880       -0.74050        0.76500
H         -1.92610       -0.87450        0.72780
H         -2.02850        0.38060       -0.53850
