14
gdb 16135	4.71461	1.79959	1.5389	4.0687	63.02	-0.2317	-0.0229	0.2088	807.4525	0.107954	-378.725718	-378.719042	-378.718097	-378.75642	25.307
O         -0.85800        1.14600       -0.21030
C          0.26130        0.91510        0.18540
C          1.39890        1.85160        0.05100
C          1.11420        3.34520       -0.04220
C          1.66330        2.68960       -1.25580
N          3.09560        2.65070       -1.34470
C          3.56230        1.88640       -0.28820
N          2.68340        1.42290        0.52490
H          0.53000       -0.04410        0.67670
H          0.05760        3.58660       -0.06760
H          1.75420        4.00790        0.53070
H          1.08440        2.58550       -2.16520
H          3.55050        2.61040       -2.24360
H          4.62990        1.73070       -0.17490
