14
gdb 23923	4.24376	1.28978	1.24541	2.6076	51.17	-0.2513	0.0793	0.3306	973.112	0.103555	-510.197311	-510.189853	-510.188909	-510.22989	26.716
F          0.23020        0.14150       -0.06080
C         -0.03110        1.44280        0.08230
F          1.14420        2.08510        0.18320
F         -0.62800        1.86810       -1.04420
C         -0.92720        1.72350        1.27930
N         -0.29580        1.28020        2.50460
C          0.56480        2.25070        3.17760
C         -0.77110        1.90690        3.73510
H         -1.16400        2.80120        1.26020
H         -1.85830        1.16880        1.12650
H          1.46980        1.84390        3.61730
H          0.68050        3.23080        2.72010
H         -1.55320        2.66030        3.65560
H         -0.86250        1.24460        4.59050
