16
gdb 14954	4.59618	1.38378	1.14082	2.2988	61.6	-0.2571	-0.0385	0.2186	1004.0929	0.131262	-420.878411	-420.871133	-420.870189	-420.910692	26.342
O         -0.11340        0.00120        0.00300
C         -0.00910        1.20040        0.00800
C          1.29950        1.95650       -0.00080
C          1.39260        2.87450       -1.23990
O          2.53280        3.71080       -1.16370
C          2.52800        4.47750        0.01060
O          2.56110        3.68650        1.16820
C          1.42280        2.84860        1.25470
H         -0.91570        1.85190        0.02070
H          2.11950        1.23430       -0.01790
H          1.49260        2.28930       -2.15690
H          0.47760        3.48770       -1.31900
H          3.43840        5.07880        0.00590
H          1.63320        5.13040        0.02830
H          0.51020        3.45980        1.36880
H          1.54490        2.24420        2.15650
