18
gdb 19722	3.76142	2.31552	2.11661	1.9265	68.78	-0.2537	0.0899	0.3436	736.9413	0.158024	-347.802569	-347.796883	-347.795939	-347.831949	24.498
C         -0.02590        1.54210        0.00880
C          1.48560        1.95850       -0.00380
C          2.22870        0.59190       -0.00500
C          1.27860       -0.26760       -0.86520
C          0.03590       -0.01230        0.01320
C          0.56380       -0.36840        1.40560
O          1.59880       -1.35970        1.45410
C          1.97920        0.02160        1.39390
H         -0.55960        1.93560        0.87930
H         -0.54660        1.90590       -0.88150
H          1.73270        2.53390       -0.90040
H          1.75580        2.57360        0.86010
H          3.27150        0.63900       -0.32190
H          1.16130        0.12770       -1.87780
H          1.56730       -1.31670       -0.90970
H         -0.88870       -0.50730       -0.28730
H         -0.07210       -0.30180        2.28420
H          2.50470        0.40820        2.26280
