15
gdb 4344	3.81693	1.96229	1.30714	0.8568	71.33	-0.2222	-0.0232	0.199	905.5643	0.121069	-358.922593	-358.915277	-358.914333	-358.954552	27.156
C          0.00240        1.49230        0.03630
C         -0.01560       -0.01130       -0.01380
C         -0.09640       -0.71270       -1.21800
C         -0.09370       -2.10010       -1.13320
N         -0.02930       -2.76140        0.01840
C          0.03150       -1.98860        1.11860
N          0.04700       -2.63880        2.31920
N          0.05100       -0.64790        1.15860
H          0.89800        1.84120        0.55970
H         -0.01880        1.93160       -0.96340
H         -0.85980        1.86020        0.60200
H         -0.14830       -0.20300       -2.17150
H         -0.14260       -2.71100       -2.03300
H          0.27150       -3.61910        2.30040
H          0.32840       -2.10260        3.12230
