15
gdb 21225	3.2933	1.91936	1.22841	3.7921	64.29	-0.2092	0.016	0.2252	946.8296	0.120196	-395.961164	-395.953373	-395.952429	-395.993268	28.336
C         -0.01960        1.42430       -0.02780
N          0.00010       -0.02460        0.11790
C         -1.19690       -0.70280        0.06290
N         -2.37080       -0.11150        0.11200
O         -3.30970       -1.15100        0.07370
C         -2.65600       -2.32800        0.01240
C         -1.31460       -2.13190       -0.00190
N         -0.21800       -3.00550       -0.13050
H          1.00120        1.80250        0.06240
H         -0.44590        1.75520       -0.98510
H         -0.62630        1.85670        0.77150
H          0.72490       -0.49450       -0.40830
H         -3.27280       -3.21280       -0.02380
H         -0.50560       -3.97050       -0.23610
H          0.40460       -2.94450        0.66950
