19
gdb 6847	3.33686	1.8722	1.65234	2.39	71.47	-0.2432	0.0333	0.2765	888.1734	0.166018	-365.092258	-365.084349	-365.083404	-365.123972	30.575
C         -0.13450        1.58960        0.00290
C         -0.01400        0.06180       -0.03830
C         -1.38760       -0.59690        0.05380
C          0.77090       -0.43320       -1.26180
C          2.24090       -0.01210       -1.17080
N          2.82680       -0.25590        0.14260
C          2.03900       -0.41150        1.11960
O          0.68690       -0.35900        1.16690
H          0.84730        2.06940       -0.00110
H         -0.69780        1.95060       -0.86350
H         -0.65930        1.90050        0.91040
H         -2.00320       -0.31570       -0.80600
H         -1.29100       -1.68590        0.07060
H         -1.90240       -0.28300        0.96630
H          0.70920       -1.52720       -1.29210
H          0.30570       -0.05650       -2.17900
H          2.83570       -0.55540       -1.91350
H          2.36090        1.05180       -1.41570
H          2.42850       -0.63310        2.11250
