13
gdb 15023	2.7728	1.8928	1.27915	4.0798	63.37	-0.2839	0.0051	0.289	923.9502	0.093572	-361.403315	-361.395484	-361.39454	-361.435944	27.532
C          0.09270       -1.17870       -0.21390
C          0.06030        0.01300       -0.08100
C         -0.02340        1.46720        0.06940
C          1.31430        2.07680        0.13930
N          2.34990        2.58120        0.21530
C         -0.87990        2.08980       -1.04520
C         -0.65320        3.44100       -1.56640
O         -0.26720        2.27230       -2.30400
H          0.13430       -2.23370       -0.33250
H         -0.52660        1.69280        1.02160
H         -1.88390        1.66610       -1.07230
H         -1.49240        3.99710       -1.97940
H          0.17230        4.03680       -1.18440
