22
gdb 13614	3.02513	1.29108	1.01796	1.5854	78.22	-0.2545	0.0723	0.3268	1232.2734	0.198821	-350.194054	-350.184265	-350.18332	-350.228511	35.995
C         -0.54820        1.06870        1.15440
C         -1.13930       -0.06930        0.31170
C         -2.58110        0.25060       -0.11730
O         -3.45370        0.51310        0.97260
C         -0.28280       -0.36020       -0.90820
C          0.97560       -1.19080       -0.81020
C         -0.20820       -1.71190       -1.58950
C         -0.97500       -2.92900       -1.11730
H          0.43650        0.79900        1.54740
H         -0.42930        1.97550        0.54920
H         -1.20930        1.31110        1.99000
H         -1.17800       -0.97290        0.93770
H         -2.58920        1.16390       -0.72460
H         -2.96900       -0.56260       -0.74950
H         -3.52770       -0.29610        1.48870
H         -0.21880        0.49000       -1.58600
H          1.86400       -0.86940       -1.34310
H          1.18280       -1.66320        0.14620
H         -0.10640       -1.66300       -2.67100
H         -1.03200       -2.98110       -0.02600
H         -1.99970       -2.93730       -1.50620
H         -0.48580       -3.84820       -1.45880
