17
gdb 18836	4.03181	2.10314	1.87457	2.1226	66.11	-0.2261	0.0734	0.2996	764.3968	0.144765	-363.818922	-363.812652	-363.811707	-363.848984	25.647
O         -0.04120        1.41650       -0.04410
C          0.02070       -0.00080        0.00810
C          0.62120       -0.52340        1.34480
C         -0.59930       -0.80240        2.21320
C         -1.84170       -0.38600        1.53850
C         -1.41720       -0.51390        0.05440
C         -1.42230       -2.03870        0.30920
N         -1.58010       -1.85090        1.79300
H          0.85700        1.75900        0.00220
H          0.56060       -0.40130       -0.86390
H          1.24290       -1.41380        1.20030
H          1.25420        0.24260        1.80470
H         -0.51370       -0.74810        3.29290
H         -2.67670        0.15260        1.96920
H         -2.05660       -0.11600       -0.73170
H         -2.31950       -2.53400       -0.06790
H         -0.54220       -2.61620        0.00080
