16
gdb 8822	2.83879	1.63893	1.10202	0.9774	66.79	-0.2655	0.0126	0.278	1064.3945	0.129517	-379.97498	-379.965721	-379.964776	-380.010229	31.272
C         -0.10240        1.48660        0.87020
N          0.18110        0.08800        1.13660
C          0.87680       -0.68640        0.27240
O          1.32710       -0.30530       -0.79160
C          1.08670       -2.17100        0.68390
C          2.57150       -2.55840        0.52720
C          0.57800       -2.48610        2.01740
N          0.16580       -2.69130        3.07860
H          0.32300        1.73010       -0.10350
H         -1.18160        1.67050        0.84870
H          0.34910        2.13100        1.63180
H         -0.13820       -0.31720        2.00280
H          0.49860       -2.75010       -0.03900
H          2.89670       -2.25890       -0.46960
H          3.18710       -2.04390        1.26940
H          2.70390       -3.63520        0.65100
