17
gdb 10566	2.86052	1.45077	1.0887	2.3393	65.12	-0.252	-0.0293	0.2228	1091.2338	0.140904	-400.974296	-400.965624	-400.96468	-401.007902	30.824
O         -0.03380        1.50250       -0.24510
C         -0.02060        0.08600       -0.30380
C         -1.33150       -0.52140        0.21740
C         -1.37840       -2.03090        0.10970
C         -2.65620       -2.71960       -0.27380
N         -1.53720       -2.70030       -1.20750
C         -0.48440       -2.80290        1.02560
O          0.12180       -2.32100        1.95050
H          0.00380        1.75750        0.68230
H          0.11690       -0.16590       -1.36130
H          0.83020       -0.33550        0.24760
H         -1.45350       -0.24630        1.27190
H         -2.16780       -0.07800       -0.33470
H         -2.89600       -3.69700        0.13680
H         -3.51390       -2.07510       -0.44670
H         -1.68390       -1.99110       -1.92220
H         -0.43140       -3.88710        0.78360
