16
gdb 15574	3.51712	1.82351	1.25884	3.5892	69.35	-0.2551	-0.0657	0.1894	936.3154	0.130974	-383.768172	-383.760774	-383.75983	-383.799967	27.525
O         -0.04270        1.44360        0.06490
C          0.03040        0.03250        0.01940
C         -1.38710       -0.57620       -0.02960
C         -1.29120       -1.79110       -0.98870
C         -0.04730       -1.50420       -1.78640
C          0.67140       -0.50900       -1.24960
C          1.93060        0.01840       -1.76350
O          2.52260        0.95040       -1.25060
H          0.86110        1.76100       -0.06790
H          0.59140       -0.34550        0.89160
H         -1.77350       -0.83890        0.95690
H         -2.04340        0.18800       -0.45600
H         -1.17390       -2.73820       -0.44300
H         -2.17670       -1.91620       -1.62130
H          0.23080       -2.06210       -2.67620
H          2.33170       -0.47730       -2.67330
