16
gdb 14916	4.6957	1.49459	1.20657	0.3579	67.38	-0.2397	0.0299	0.2696	975.5928	0.130725	-383.694393	-383.687112	-383.686168	-383.725804	27.76
C         -0.00170       -1.18830       -0.01620
C          0.03280        0.01210       -0.01200
C          0.01940        1.46790        0.02930
C         -0.70630        1.98980        1.28370
O         -0.66630        3.40300        1.32280
C          0.67150        3.87970        1.30450
C          1.39580        3.37040        0.06470
O          1.36270        1.95030        0.01390
H         -0.02150       -2.25010       -0.03190
H         -0.51410        1.85820       -0.85480
H         -1.75900        1.69680        1.26710
H         -0.22550        1.55570        2.17410
H          0.61820        4.97240        1.30880
H          1.20690        3.54640        2.20820
H          0.92490        3.79490       -0.83700
H          2.45170        3.65580        0.07750
