20
gdb 12093	3.21605	1.60824	1.41806	1.6192	74.51	-0.2525	0.0895	0.342	998.4647	0.175376	-348.975939	-348.967219	-348.966274	-349.009429	32.779
C         -1.83140        0.06550        1.89640
C         -0.83330       -0.71310        1.07960
O         -0.08780        0.01870        0.10420
C          0.63390       -0.57060        1.19260
C          1.34760        0.36520        2.14640
C          1.72050        1.71270        1.55460
C          1.02150        0.29220        3.62430
C          2.31860       -0.27650        3.10890
H         -1.39570        0.98660        2.28760
H         -2.69700        0.32680        1.27840
H         -2.19260       -0.53530        2.73820
H         -1.20160       -1.67320        0.70950
H          1.22970       -1.43250        0.88170
H          0.83410        2.25510        1.21500
H          2.24190        2.32710        2.29530
H          2.38110        1.59310        0.68890
H          1.05250        1.21240        4.19890
H          0.25990       -0.40820        3.94850
H          2.42040       -1.35750        3.08480
H          3.24110        0.25080        3.32810
