18
gdb 18278	4.24874	1.58236	1.3188	2.6911	67.04	-0.2477	0.0814	0.3291	953.9953	0.155508	-384.928106	-384.920839	-384.919895	-384.959604	28.125
O          0.04650        1.38960       -0.12610
C          0.07440       -0.01760        0.01560
C         -1.33240       -0.59720        0.08760
O         -2.00140       -0.20420       -1.11950
C         -3.06720       -1.11830       -1.36870
C         -2.59800       -2.44890       -0.80760
C         -1.18930       -2.84990       -1.15720
C         -1.46220       -2.11010        0.13080
H         -0.55000        1.56860       -0.86230
H          0.62080       -0.49840       -0.81040
H          0.61120       -0.23470        0.94530
H         -1.84880       -0.15930        0.95840
H         -3.99100       -0.79640       -0.86200
H         -3.24780       -1.11930       -2.44880
H         -3.33550       -3.20400       -0.56330
H         -0.93590       -3.90090       -1.07780
H         -0.69050       -2.32430       -1.96510
H         -1.33870       -2.61540        1.08110
