20
gdb 9915	4.75902	0.9828	0.92215	2.3232	72.74	-0.2554	0.0838	0.3392	1346.2771	0.174223	-386.117501	-386.107984	-386.10704	-386.152321	33.612
C         -0.15800        1.48470       -0.08820
C          0.03650       -0.01960       -0.00530
O          0.64270       -0.46190       -1.20280
C          0.87850       -1.85090       -1.23040
C          1.53810       -2.21410       -2.54230
C          2.75850       -1.40750       -2.92230
C          1.35490       -3.58070       -3.05060
O          0.62640       -2.49140       -3.61700
H          0.80370        1.98940       -0.21710
H         -0.79640        1.74160       -0.93790
H         -0.62750        1.85930        0.82630
H          0.66950       -0.28270        0.85990
H         -0.93160       -0.52830        0.13960
H          1.53570       -2.14570       -0.39220
H         -0.06370       -2.41250       -1.13100
H          3.55080       -1.52810       -2.17520
H          3.14010       -1.72950       -3.89390
H          2.50390       -0.34640       -2.97390
H          2.12200       -4.01870       -3.68840
H          0.75980       -4.30050       -2.48810
