18
gdb 2690	16.65765	0.84381	0.81949	2.8736	69.95	-0.2451	0.0279	0.273	1428.98	0.157851	-326.977685	-326.968614	-326.967669	-327.012319	30.143
C          0.01790        1.49960        0.05210
C         -0.04430       -0.02520       -0.06810
C          0.76680       -0.54140       -1.24630
O          0.64860       -1.96560       -1.27650
C          1.31230       -2.59190       -2.26680
N          1.27100       -3.84380       -2.37960
C          2.01270       -4.43710       -3.47130
H          1.04650        1.84850        0.19550
H         -0.37640        1.98860       -0.84540
H         -0.57160        1.84740        0.90480
H          0.33180       -0.49660        0.84670
H         -1.08160       -0.35740       -0.18730
H          0.39430       -0.11460       -2.18870
H          1.82350       -0.25530       -1.14310
H          1.87170       -1.92010       -2.93890
H          1.33130       -5.00860       -4.11210
H          2.54730       -3.70680       -4.10170
H          2.74610       -5.14880       -3.07470
