16
gdb 651	6.86385	3.29296	3.06483	0.1283	60.85	-0.2892	0.1047	0.3939	531.2527	0.144734	-234.447743	-234.442324	-234.44138	-234.476188	21.437
C         -0.14580        1.57920        0.00250
C          0.03290        0.06890        0.03010
C          1.18370       -0.64810       -0.75260
C          2.17820       -0.15720        0.34040
C          0.91480       -0.64580        1.10830
C          0.92140       -1.88020        0.16100
H          0.78780        2.13170        0.13500
H         -0.58290        1.89480       -0.95160
H         -0.83250        1.89730        0.79500
H         -0.94130       -0.41580       -0.11000
H          1.34090       -0.65300       -1.83300
H          3.08230       -0.75850        0.47180
H          2.41760        0.90660        0.37370
H          0.75970       -0.64790        2.18910
H         -0.03080       -2.40100        0.02400
H          1.75010       -2.58300        0.28160
