18
gdb 11077	2.22469	2.17157	1.83284	2.0213	68.31	-0.2241	0.0734	0.2975	887.29	0.151713	-384.900285	-384.891777	-384.890833	-384.932561	31.861
C          0.00680        1.56570        0.03170
C          0.09720        0.05600        0.01490
C          1.35670       -0.75100       -0.25630
O          1.44530       -1.75610       -1.20090
C          2.55710       -0.10720        0.42900
O          1.83520       -0.05270        1.68930
C          0.72610       -0.77190        1.11850
C          0.06050       -1.80590        1.96410
H          0.80670        1.99180        0.64230
H          0.07510        1.98980       -0.97630
H         -0.94520        1.89090        0.46430
H         -0.76450       -0.45940       -0.40830
H          1.26670       -1.37710       -2.06840
H          3.41140       -0.79000        0.50000
H          2.89250        0.88130        0.09350
H         -0.46780       -1.34190        2.80460
H         -0.66860       -2.36640        1.37230
H          0.79530       -2.50830        2.36940
