17
gdb 7788	3.22904	1.92457	1.27038	5.1723	65.21	-0.2489	0.0582	0.3071	951.0784	0.143936	-401.060381	-401.052734	-401.05179	-401.092533	28.342
C          0.00890        1.50670        0.08180
C          0.02960       -0.00770       -0.04530
C          0.77020       -0.51860       -1.27480
C          0.73670       -2.04340       -1.27140
N          1.05990       -2.52130        0.06230
C          1.07130       -1.80100        1.22770
O          1.43300       -2.25860        2.28360
O          0.66340       -0.50570        1.14950
H          1.02810        1.90460        0.08890
H         -0.53610        1.95180       -0.75600
H         -0.48050        1.80170        1.01320
H         -1.00260       -0.38900       -0.06200
H          0.30580       -0.13380       -2.18730
H          1.80430       -0.15740       -1.24140
H         -0.25920       -2.39480       -1.58020
H          1.45820       -2.45070       -1.98850
H          1.35830       -3.47460        0.18750
