15
gdb 18284	3.24095	2.28501	1.96943	2.2469	60.19	-0.25	0.027	0.277	741.5252	0.120414	-399.78133	-399.774507	-399.773563	-399.812381	25.576
O         -0.21370        1.46080       -0.13140
C         -0.07250        0.08060       -0.01240
C         -1.34240       -0.74180        0.09820
C         -2.69150       -0.04760        0.00220
N         -3.10020        0.37860       -1.33180
C         -2.28860        0.31070       -2.28950
O         -0.99460       -0.13650       -2.31120
C         -0.51750       -0.78890       -1.16000
H          0.04840        1.71110       -1.02500
H          0.79770       -0.24160        0.55710
H         -1.30240       -1.61860        0.73590
H         -3.46710       -0.72330        0.37760
H         -2.71330        0.83980        0.64550
H         -2.56300        0.64490       -3.28770
H          0.04600       -1.67480       -1.42950
