18
gdb 12824	3.46193	2.0087	1.56073	2.4753	67.29	-0.2522	0.0849	0.3372	872.7406	0.154561	-384.933525	-384.926209	-384.925265	-384.964729	28.353
C          0.01290        1.52400       -0.03410
C         -0.01710        0.01770        0.06650
C         -1.24750       -0.65650       -0.52250
O         -1.29560       -2.04730       -0.29530
C         -1.17010       -2.36920        1.07770
C          0.23740       -2.06470        1.60250
C          0.71360       -0.70360        1.12610
O          1.21490       -0.65080       -0.21800
H          0.94050        1.91480        0.39100
H         -0.04110        1.84310       -1.08120
H         -0.83280        1.97260        0.49800
H         -2.14600       -0.16400       -0.10920
H         -1.25950       -0.52040       -1.60950
H         -1.91730       -1.80720        1.66430
H         -1.40460       -3.43330        1.16870
H          0.23690       -2.10010        2.69780
H          0.94640       -2.82140        1.24950
H          1.30390       -0.11950        1.83330
