15
gdb 12342	2.86512	2.32572	1.50927	1.7271	61.54	-0.2383	-0.0353	0.203	836.3289	0.118781	-399.826916	-399.819373	-399.818429	-399.860135	26.721
C          0.65430        1.39780       -0.15870
C         -0.07640        0.07010        0.06470
O          0.04190       -0.74870       -1.11550
C          0.97830       -1.72470       -1.13270
N          1.67880       -2.19820       -0.19510
C          1.47890       -1.69540        1.15350
C          0.43430       -0.60770        1.33370
O          0.04550       -0.24220        2.41660
H          1.73090        1.23840       -0.27600
H          0.27550        1.87830       -1.06400
H          0.48760        2.05840        0.69560
H         -1.14670        0.25260        0.19380
H          1.07310       -2.11810       -2.14310
H          1.21640       -2.52710        1.81860
H          2.43210       -1.30990        1.54300
