18
gdb 17468	4.29481	1.93356	1.65812	0.2428	70.29	-0.2159	0.0652	0.2811	837.2537	0.155801	-343.937034	-343.930226	-343.929282	-343.9675	27.562
C         -0.04730        1.54930        0.07980
C         -0.01070        0.04100        0.08400
C         -1.29420       -0.73160       -0.25050
N         -1.36520       -1.95430        0.58470
C         -0.39230       -3.01060        0.28930
C         -0.10630       -2.02360        1.36220
C          0.73690       -0.80350        1.06800
N          1.27310       -0.57780       -0.28140
H          0.92690        1.95050        0.36870
H         -0.28220        1.93370       -0.91970
H         -0.80640        1.92880        0.77240
H         -2.16450       -0.11340       -0.00450
H         -1.36920       -0.98360       -1.31580
H         -0.72310       -4.01290        0.55160
H          0.17480       -2.97370       -0.63840
H         -0.18990       -2.31650        2.40560
H          1.33160       -0.39190        1.87800
H          1.15930       -1.39140       -0.87810
