11
gdb 23805	3.39411	2.34344	1.38629	3.2687	56.23	-0.2459	-0.0649	0.181	778.9313	0.073794	-438.716554	-438.710633	-438.709689	-438.746738	22.125
F         -0.00500        0.03090        0.00360
C         -0.04640        1.34910        0.01130
C         -1.21190        2.03550        0.03010
C         -1.16110        3.46170        0.03700
N         -0.05040        4.14130        0.02590
N          1.08020        3.41790        0.00740
C          1.24770        2.03050       -0.00160
O          2.34470        1.50900       -0.01960
H         -2.16040        1.51090        0.03960
H         -2.07230        4.04790        0.05190
H          1.93500        3.95990       -0.00130
