16
gdb 15565	3.54596	1.744	1.2416	1.1194	76.22	-0.2299	-0.0252	0.2048	963.6335	0.129226	-346.582865	-346.57494	-346.573995	-346.615228	29.251
C          0.12330        1.55990       -0.10330
C         -0.01640        0.05070        0.07370
O          0.49740       -0.62930       -1.07370
C          1.43890       -1.62550       -0.69500
C          1.60310       -1.47170        0.78620
C          0.77580       -0.52480        1.24040
C          0.59040       -0.08740        2.57040
C          0.39070        0.31960        3.68700
H          1.17650        1.83660       -0.20780
H         -0.41280        1.88100       -1.00050
H         -0.29510        2.08460        0.76080
H         -1.08410       -0.19770        0.19260
H          1.06800       -2.62910       -0.96360
H          2.38060       -1.47520       -1.24520
H          2.28660       -2.06310        1.38070
H          0.22740        0.66700        4.67710
