13
gdb 12303	3.10643	2.3628	1.41469	3.7198	56.2	-0.2627	-0.0769	0.1858	815.2946	0.096103	-435.744712	-435.737953	-435.737009	-435.776308	24.375
N          0.00630        1.14050        0.61780
C          0.03370        0.00680        0.06180
O          1.18700       -0.58020       -0.37200
C          1.06700       -1.81890       -1.07410
O          0.23670       -2.70910       -0.41110
C         -1.11000       -2.26600       -0.45690
C         -1.26180       -0.78790       -0.10260
O         -2.34400       -0.28320        0.03070
H          0.95060        1.52980        0.67520
H          0.70530       -1.61750       -2.09640
H          2.07090       -2.24250       -1.10130
H         -1.54520       -2.42170       -1.45730
H         -1.68250       -2.86390        0.25610
