18
gdb 15389	3.77799	1.13134	0.94282	0.4734	75.48	-0.2448	0.0478	0.2926	1251.6664	0.15159	-347.744181	-347.73518	-347.734236	-347.778323	32.181
C          0.11030        1.34810       -0.11710
O          0.25720       -0.05090       -0.10060
C          0.44530       -0.56170        1.20380
C          0.53980       -2.06060        1.11650
C          1.84470       -2.72000        0.78650
C          1.27490       -2.85350        2.19170
C          1.90910       -2.20400        3.30260
C          2.43650       -1.67670        4.24700
H          1.00210        1.85910        0.28040
H         -0.03470        1.65050       -1.15710
H         -0.76050        1.67640        0.47330
H          1.35920       -0.14750        1.65840
H         -0.39710       -0.26810        1.85390
H         -0.35630       -2.53720        0.73070
H          1.84340       -3.60440        0.15990
H          2.71310       -2.08130        0.67130
H          0.83480       -3.81680        2.43250
H          2.90520       -1.21110        5.07800
