22
gdb 11403	5.26986	1.10877	0.96122	0.254	84.6	-0.2236	0.036	0.2597	1294.3063	0.200533	-313.10072	-313.091849	-313.090904	-313.134046	33.382
C         -0.37730        1.75980        0.34480
C         -0.00800        0.27560        0.25860
C         -1.15780       -0.62260       -0.20600
C         -1.66590       -0.34820       -1.65040
C         -2.06080       -1.71680       -2.14590
C         -1.60980       -2.69940       -1.36310
C         -1.76760       -4.17270       -1.56940
C         -0.82620       -2.13800       -0.19410
H          0.46860        2.36000        0.69460
H         -0.68270        2.15470       -0.62980
H         -1.20870        1.91960        1.04080
H          0.84280        0.14700       -0.42500
H          0.33910       -0.06800        1.24200
H         -2.00760       -0.46840        0.47220
H         -2.49090        0.37320       -1.67450
H         -0.86910        0.08030       -2.27860
H         -2.61740       -1.86910       -3.06550
H         -2.34310       -4.39630       -2.47210
H         -0.79150       -4.66780       -1.65770
H         -2.27470       -4.64220       -0.71650
H          0.25130       -2.31550       -0.33830
H         -1.08440       -2.61430        0.76020
