15
gdb 1387	4.63524	1.40461	1.1336	0.7609	71.21	-0.2471	0.0411	0.2883	1049.7488	0.121897	-271.326117	-271.317342	-271.316398	-271.360595	29.904
C         -0.02360        1.49790        0.04220
C         -0.00260        0.04260        0.00410
C          0.02360       -1.15980       -0.03190
C          0.02650       -2.62710       -0.06430
C         -1.41320       -3.19650        0.00400
C          0.73780       -3.13950       -1.24180
C          1.30290       -3.58480       -2.20360
H          0.99160        1.90960        0.04050
H         -0.55000        1.91070       -0.82540
H         -0.52890        1.86550        0.94210
H          0.56370       -2.98480        0.82650
H         -1.38450       -4.28900        0.01630
H         -1.91090       -2.84000        0.90920
H         -1.98990       -2.87060       -0.86440
H          1.81210       -3.96830       -3.05270
