14
gdb 7019	2.99892	1.4276	0.97292	1.45	67.83	-0.2599	-0.0223	0.2376	1121.8839	0.106037	-378.726297	-378.717928	-378.716984	-378.76017	29.214
N          0.09890        1.25700       -1.12950
C         -0.38360        0.55570       -0.18780
N         -1.74760        0.30850       -0.13590
C         -2.34520       -0.43940        0.84830
O         -1.74220       -0.95460        1.76450
C         -3.87320       -0.59950        0.73050
C         -4.51400        0.05230       -0.40070
C         -5.01570        0.60170       -1.34520
H          1.10800        1.34360       -1.02310
H          0.15170        0.08820        0.64090
H         -2.32000        0.70700       -0.86960
H         -4.06490       -1.67860        0.71700
H         -4.29010       -0.23500        1.67640
H         -5.47340        1.08180       -2.17510
