18
gdb 6142	4.6989	1.23111	1.16391	4.9564	72.76	-0.2493	0.0202	0.2695	1085.0763	0.153442	-343.986454	-343.978084	-343.97714	-344.019052	31.385
C         -0.22610        1.51920        0.01790
C          0.01820        0.00880       -0.02990
C         -1.26260       -0.77380        0.23070
C          0.85690       -0.43070       -1.26870
C          2.08190       -0.45530       -0.31090
N          1.15380       -0.43910        0.83890
C          2.97370       -1.61500       -0.37220
N          3.68180       -2.52600       -0.43860
H          0.68910        2.08440       -0.18930
H         -0.97900        1.81920       -0.71900
H         -0.59320        1.81800        1.00650
H         -2.01560       -0.55670       -0.53510
H         -1.06050       -1.84770        0.23190
H         -1.68800       -0.50880        1.20510
H          0.59320       -1.42320       -1.63520
H          0.91660        0.26740       -2.10390
H          2.69800        0.44740       -0.41810
H          1.41440        0.19420        1.58850
