15
gdb 16320	3.20268	2.05862	1.46523	3.2592	62.01	-0.2366	0.0036	0.2401	860.8392	0.118279	-399.771561	-399.764094	-399.763149	-399.803485	27.332
C          0.05870        1.34460        0.22220
O          0.04470       -0.03510       -0.13990
C         -1.20820       -0.57300       -0.14700
C         -1.91060       -1.08700        1.12500
C         -1.61830       -2.02010       -0.01730
N         -2.58370       -1.83620       -1.10900
C         -2.27450       -0.46420       -1.24270
O         -2.71980        0.39510       -1.94780
H          1.10030        1.66720        0.17850
H         -0.54010        1.94090       -0.47540
H         -0.32590        1.48880        1.24090
H         -1.23850       -1.15310        1.97670
H         -2.93520       -0.81390        1.36060
H         -0.98750       -2.89720        0.02700
H         -3.54140       -2.16730       -1.05670
