20
gdb 11790	3.99291	1.61933	1.50283	1.8083	73.93	-0.2343	0.0783	0.3125	946.0883	0.178518	-348.98922	-348.981833	-348.980889	-349.020724	29.361
C         -0.14990        1.53480       -0.00080
C          0.08870        0.01900       -0.02210
C          0.75920       -0.52150        1.22340
C          0.11720       -0.46670        2.65560
C          1.20290       -1.53580        2.91870
C          0.93660       -2.05690        1.48870
O          2.43200       -0.80370        2.78130
C          2.18320       -0.04950        1.57480
H          0.79020        2.09260        0.05640
H         -0.67150        1.85950       -0.90610
H         -0.76230        1.82670        0.85890
H         -0.87080       -0.49610       -0.15650
H          0.69830       -0.24430       -0.89750
H          0.18590        0.46330        3.22560
H         -0.90040       -0.86270        2.67250
H          1.24710       -2.16400        3.80670
H         -0.00120       -2.60740        1.38880
H          1.75460       -2.58100        0.98710
H          2.92210       -0.30820        0.80550
H          2.25160        1.02400        1.78550
