14
gdb 3731	7.03098	2.00382	1.76024	4.5391	58.79	-0.2554	0.0031	0.2585	729.4899	0.115235	-320.761312	-320.75488	-320.753935	-320.792587	22.628
C          0.02630        1.48990       -0.30240
C         -0.04170        0.05140        0.21150
N         -1.36860       -0.53250        0.07250
C         -1.94520       -1.10980       -1.00840
C         -3.21710       -1.41770       -0.58930
N         -3.35630       -1.01890        0.70420
N         -2.23780       -0.48110        1.10230
H          1.03350        1.89070       -0.15520
H         -0.20980        1.54200       -1.36930
H         -0.68200        2.12190        0.23930
H          0.66720       -0.59080       -0.31960
H          0.19570        0.00810        1.27650
H         -1.42100       -1.25060       -1.93870
H         -4.01900       -1.89820       -1.12590
