16
gdb 8327	5.94261	1.25131	1.23634	0.9286	64.62	-0.2462	-0.0294	0.2167	989.2135	0.129136	-383.720835	-383.713376	-383.712432	-383.755653	26.966
O          0.07900        0.10740       -0.67250
C          0.02080        1.18550       -0.15980
C         -1.13670        2.09310        0.28940
C         -0.08410        3.12810        0.78090
C         -0.15320        4.60910        0.35760
O         -0.18820        5.05140        1.72830
C         -0.12600        3.69640        2.21370
C          1.07450        2.20240        0.31060
H         -1.78150        2.42820       -0.53010
H         -1.77240        1.65570        1.06640
H          0.72810        4.98990       -0.17540
H         -1.05750        4.90170       -0.19250
H         -1.01340        3.42900        2.80270
H          0.77210        3.51720        2.81980
H          1.73520        1.82900        1.10010
H          1.69870        2.60010       -0.49670
