16
gdb 14205	2.76326	2.47422	1.85108	0.872	64.	-0.2158	0.0704	0.2862	787.1794	0.129743	-383.667613	-383.660502	-383.659558	-383.698479	27.733
C         -0.13860        1.53460       -0.06080
C         -0.03010        0.04840        0.02140
C          0.05840       -1.06950       -0.97290
O          1.21770       -1.68240       -0.41090
C          0.88260       -0.97110        0.81720
C         -0.38940       -1.69110        1.33780
C         -1.05290       -1.07610        0.10470
O         -2.39340       -0.95120       -0.18860
H          0.79130        1.98830       -0.42040
H         -0.94130        1.81470       -0.75050
H         -0.37560        1.97510        0.91430
H         -0.11560       -1.11450       -2.04100
H          1.74120       -0.75460        1.44940
H         -0.32490       -2.77960        1.43790
H         -0.76710       -1.23530        2.25690
H         -2.69280       -1.76410       -0.61150
