17
gdb 19370	3.84418	1.81114	1.52672	2.2995	67.48	-0.227	0.0589	0.2859	870.4867	0.142536	-363.765256	-363.758123	-363.757179	-363.796666	27.922
O          0.00750        1.45130       -0.01000
C          0.01320        0.03360       -0.04200
C         -1.38140       -0.50350        0.07440
C         -2.06470       -0.98070        1.31970
C         -1.96460       -1.89620        0.12090
C         -2.88910       -1.46020       -1.03010
C         -3.70360       -0.25870       -0.76490
N         -2.27420       -0.08360       -1.09380
H         -0.59350        1.72640       -0.71360
H          0.47300       -0.33660       -0.97200
H          0.62950       -0.30520        0.79680
H         -1.36310       -1.23250        2.10960
H         -3.00530       -0.59450        1.69620
H         -1.46060       -2.85310        0.14900
H         -3.00160       -2.05110       -1.93360
H         -4.34040        0.08440       -1.57580
H         -4.08410       -0.01920        0.22070
