20
gdb 11743	4.88699	1.25543	1.1667	1.5295	75.61	-0.2494	0.0727	0.322	1106.5298	0.176694	-348.973512	-348.965018	-348.964073	-349.006301	32.091
C         -0.13780        1.56990        0.08970
C          0.06800        0.06080        0.04390
C          1.12380       -0.54180       -0.94910
C          1.79930       -1.26420        0.22630
C          2.32510       -2.66190        0.18780
O          3.55300       -2.66400       -0.53530
C          2.26370       -0.24800        1.23130
C          0.80710       -0.62710        1.20550
H          0.80420        2.10130        0.25980
H         -0.55910        1.93680       -0.85300
H         -0.82710        1.84960        0.89430
H         -0.89740       -0.42950       -0.11790
H          0.67760       -1.22180       -1.67930
H          1.75400        0.17600       -1.48410
H          2.46820       -3.02820        1.21820
H          1.58870       -3.32540       -0.29530
H          3.82600       -3.57880       -0.65410
H          2.82750       -0.64990        2.06750
H          2.59710        0.73490        0.90790
H          0.32880       -1.07480        2.07010
