19
gdb 6905	4.72178	1.0044	0.9372	1.3718	82.72	-0.2283	0.0461	0.2743	1333.5213	0.163079	-327.889086	-327.879386	-327.878442	-327.924449	34.292
C          0.12450        1.50130        0.04160
C          0.04770        0.04790        0.04920
C         -0.01630       -1.15520        0.06710
C         -0.07080       -2.59080        0.04860
N         -0.63140       -3.28920        1.23970
C         -1.34870       -3.37630       -0.04050
C         -2.67740       -2.65280       -0.06830
C         -1.31400       -4.68760       -0.79930
H          1.09290        1.84550       -0.33820
H         -0.65450        1.94150       -0.59110
H          0.00160        1.90970        1.05090
H          0.79050       -3.06150       -0.42350
H         -0.09550       -4.13970        1.40230
H         -2.62350       -1.72590        0.50440
H         -2.96690       -2.41100       -1.09680
H         -3.46220       -3.28240        0.36580
H         -2.01960       -5.40400       -0.36200
H         -1.59630       -4.54530       -1.84810
H         -0.31610       -5.13830       -0.77710
