18
gdb 20208	3.20626	2.6922	2.14027	1.5303	69.12	-0.2294	0.0838	0.3132	731.8952	0.157837	-347.804908	-347.799017	-347.798073	-347.834654	24.595
C         -0.03590        1.56140       -0.07850
C          1.44970        1.99290        0.00410
C          2.16160        0.86080        0.77820
C          1.86730        0.90730        2.28850
O          0.55190        0.36220        2.44830
C          0.33850       -0.54200        1.39130
C         -0.00410        0.03750        0.03300
C          1.41140       -0.42160        0.35540
H         -0.61770        1.99540        0.74100
H         -0.49910        1.87970       -1.01620
H          1.87110        2.04970       -1.00570
H          1.58670        2.97410        0.47070
H          3.23510        0.82450        0.57930
H          2.59520        0.29840        2.84640
H          1.86390        1.91860        2.70720
H         -0.08520       -1.49100        1.70350
H         -0.63750       -0.55950       -0.61470
H          1.90880       -1.26130       -0.11270
