18
gdb 14846	2.90833	1.70383	1.22739	1.7007	74.33	-0.2439	0.0514	0.2953	1032.0588	0.152085	-347.746599	-347.737987	-347.737043	-347.7799	31.367
C          0.02090        1.57680        0.39270
O          0.68400        0.38680        0.02810
C          0.73300       -0.55440        1.05480
C         -0.53820       -1.36290        1.43190
C          0.36630       -2.61580        1.56650
C          1.45970       -1.89230        0.70260
C          1.42290       -2.25160       -0.70200
C          1.39330       -2.58270       -1.85750
H          0.50870        2.06750        1.25010
H          0.06260        2.24720       -0.46880
H         -1.03330        1.39880        0.65210
H          1.19150       -0.11910        1.95800
H         -1.11400       -1.04790        2.30440
H         -1.19990       -1.44390        0.56530
H          0.71490       -2.77180        2.59010
H         -0.01340       -3.55660        1.16880
H          2.48490       -1.96570        1.07670
H          1.37100       -2.85800       -2.88250
