19
gdb 1470	6.41145	1.25296	1.13614	0.744	73.38	-0.2584	0.0553	0.3136	1082.5284	0.169257	-273.763068	-273.754165	-273.753221	-273.796122	32.331
C         -0.06450        1.54880       -0.10180
C          0.02100        0.02410        0.01720
C          0.71390       -0.48180        1.29490
C         -0.03620       -0.08810        2.57290
C          0.89570       -2.01880        1.20970
C          1.68600       -2.58320        2.29700
C          2.34820       -3.02910        3.19630
H          0.92960        2.00600       -0.04010
H         -0.50400        1.84020       -1.06080
H         -0.68140        1.98730        0.68810
H         -0.98960       -0.40520       -0.03500
H          0.56200       -0.36900       -0.85370
H          1.71890       -0.03960        1.33520
H         -1.06560       -0.46740        2.55260
H          0.45710       -0.50420        3.45550
H         -0.08280        0.99730        2.69550
H         -0.09400       -2.49640        1.19220
H          1.37110       -2.27220        0.25340
H          2.93000       -3.43390        3.98660
