12
gdb 21498	5.24777	1.54117	1.1982	4.2061	56.83	-0.2663	-0.0409	0.2254	905.361	0.085041	-414.682896	-414.676145	-414.675201	-414.714405	24.337
N         -0.01890        1.35710        0.03730
C          0.03100       -0.01250        0.11550
O          1.07150       -0.62470        0.26430
C         -1.27230       -0.71280        0.04830
C         -2.55960       -0.27100        0.12590
O         -3.41510       -1.29140        0.04320
N         -2.69050       -2.48280       -0.09420
C         -1.43580       -2.12390       -0.08260
H          0.87270        1.82180       -0.04240
H         -0.80610        1.81500       -0.39120
H         -3.00660        0.70290        0.25770
H         -0.65610       -2.86610       -0.16860
