19
gdb 16591	3.38078	1.72059	1.42719	1.074	71.33	-0.2261	0.0621	0.2882	954.5334	0.16462	-365.006922	-364.998588	-364.997644	-365.039184	31.591
C         -0.09590        1.56470        0.06850
C         -0.02250        0.04230        0.03370
C          0.73480       -0.52210       -1.19290
C          1.79860       -1.12640       -0.30260
C          1.08220       -0.59300        0.96040
O          1.84560        0.29900        1.73920
N          0.95650       -1.94770       -1.14030
C         -0.01350       -2.89820       -0.61620
H          0.86660        2.03140       -0.17230
H         -0.81800        1.92690       -0.67060
H         -0.40350        1.92480        1.05400
H         -1.02820       -0.36900        0.17680
H          0.82960       -0.01960       -2.15180
H          2.87790       -1.18570       -0.41800
H          0.72790       -1.35250        1.66330
H          2.26850        0.93280        1.15000
H         -0.59400       -2.55530        0.25140
H         -0.71790       -3.15070       -1.41460
H          0.51500       -3.81270       -0.33040
