17
gdb 9015	4.66783	0.86581	0.85388	4.0444	75.04	-0.2454	0.0258	0.2712	1409.0387	0.140057	-363.861817	-363.852087	-363.851143	-363.898325	32.133
C          0.00170        1.47190       -0.19360
C         -0.00180        0.01970       -0.09400
C         -0.00080       -1.18060       -0.00160
C         -0.00960       -2.64190        0.09910
N         -1.34240       -3.22560        0.05920
C         -2.11620       -3.09610       -1.16250
C         -1.88260       -3.82450        1.15950
O         -2.98950       -4.31460        1.22450
H          0.81940        1.90510        0.39240
H          0.12400        1.80160       -1.23090
H         -0.93580        1.89510        0.18290
H          0.59670       -3.06930       -0.71260
H          0.46400       -2.95530        1.03700
H         -1.60920       -3.59690       -1.99630
H         -3.08520       -3.56440       -0.99100
H         -2.25440       -2.04100       -1.42190
H         -1.17500       -3.82250        2.01240
