14
gdb 4351	3.71396	1.98148	1.30251	1.9038	67.54	-0.241	-0.0431	0.1979	889.292	0.108809	-378.78905	-378.782215	-378.781271	-378.82024	25.442
C          0.02030        1.47890        0.07080
C          0.00660       -0.02200        0.00150
C         -0.17840       -0.71260       -1.19390
N         -0.19020       -2.05040       -1.25310
C         -0.01710       -2.70960       -0.11840
C          0.16970       -2.01520        1.08790
O          0.34310       -2.71350        2.22580
N          0.18210       -0.69440        1.15180
H          0.97350        1.83500        0.47460
H         -0.13010        1.92500       -0.91490
H         -0.76660        1.83850        0.74160
H         -0.32090       -0.17760       -2.12800
H         -0.02220       -3.79500       -0.13790
H          0.45290       -2.06060        2.93170
