18
gdb 11525	4.01148	1.05648	0.9448	3.5918	69.27	-0.2485	-0.0224	0.2261	1247.9518	0.151203	-384.926801	-384.917749	-384.916804	-384.962124	31.135
C          0.19760        1.49290        0.12170
C         -0.07870       -0.01530       -0.00030
C         -1.58530       -0.34770       -0.12650
C         -2.39040        0.06180        1.08440
C         -3.43240       -0.80180        1.65400
O         -2.15400       -0.68460        2.28090
C          0.63190       -0.55550       -1.22650
O          1.42600       -1.45910       -1.23240
H          1.27170        1.68870        0.19310
H         -0.18740        2.03890       -0.74760
H         -0.27290        1.90900        1.01590
H          0.32270       -0.54550        0.86860
H         -2.00250        0.14740       -1.01450
H         -1.69930       -1.42730       -0.27380
H         -2.48840        1.13530        1.25160
H         -4.26490       -0.36100        2.20070
H         -3.63940       -1.76630        1.19210
H          0.34980       -0.03500       -2.17520
