22
gdb 17070	5.78211	0.95801	0.92078	0.0659	82.6	-0.2672	0.0914	0.3586	1357.1684	0.201306	-313.049144	-313.040796	-313.039852	-313.082584	31.695
C         -0.17560        1.57670       -0.08490
C         -0.22100        0.06730       -0.21060
C         -0.18630       -0.80280        1.02180
C         -1.44890       -0.70380        0.19930
C          1.24090        2.13170        0.01370
C          2.17370        2.06650       -1.23220
C          2.70900        3.47460       -0.85770
C          1.45010        3.67280        0.02870
H         -0.68070        2.03480       -0.94770
H         -0.74930        1.88140        0.80180
H          0.31160       -0.32350       -1.07450
H          0.37740       -1.72880        0.99210
H         -0.17420       -0.30920        1.98870
H         -2.28090       -0.14460        0.61560
H         -1.74600       -1.56170       -0.39390
H          1.74970        1.68070        0.87410
H          2.89170        1.24490       -1.29590
H          1.59300        2.09200       -2.16120
H          3.62110        3.41360       -0.25680
H          2.87800        4.18710       -1.66870
H          0.65030        4.18450       -0.51780
H          1.57420        4.16310        0.99780
