12
gdb 21586	3.96699	2.0527	1.35315	6.0896	60.26	-0.2288	-0.0469	0.1819	822.6034	0.085931	-410.872163	-410.86567	-410.864726	-410.902598	24.657
N          0.05980        1.34110        0.07710
C          0.02980       -0.01410        0.01660
C         -1.18000       -0.74790        0.06440
N         -1.18170       -2.06480        0.03320
N         -0.03130       -2.73700       -0.04010
C          1.07830       -2.00010       -0.08150
O          2.21870       -2.69620       -0.15540
N          1.18560       -0.66810       -0.06240
H          0.93650        1.79750       -0.11570
H         -0.78350        1.86890       -0.06470
H         -2.14630       -0.25750        0.12790
H          2.93530       -2.04800       -0.17650
