18
gdb 15684	3.07812	1.7512	1.23429	1.7683	67.91	-0.2413	-0.0244	0.2169	1010.0289	0.153402	-384.969983	-384.961847	-384.960903	-385.002981	29.58
C          0.08030        1.56390       -0.01870
C          0.15940        0.03700        0.01580
C          0.57710       -0.55850       -1.33690
O          1.87220       -0.14270       -1.75700
C          2.82130       -1.15900       -1.41810
C          2.07940       -2.48510       -1.59520
C          0.63610       -2.09060       -1.28140
O         -0.28290       -2.82000       -1.01800
H          1.03980        1.99110       -0.32280
H         -0.67870        1.90310       -0.73250
H         -0.18000        1.96690        0.96450
H          0.87240       -0.28480        0.78580
H         -0.80780       -0.40370        0.28250
H         -0.13940       -0.24660       -2.10790
H          3.68030       -1.03590       -2.08100
H          3.16880       -1.03980       -0.38060
H          2.11860       -2.82540       -2.63680
H          2.41820       -3.30260       -0.95650
