18
gdb 14043	4.68015	1.55136	1.43768	2.0297	72.86	-0.2417	0.0172	0.2589	926.242	0.155316	-347.793127	-347.785956	-347.785012	-347.825349	26.95
C          0.04460        1.53200       -0.03930
O          1.42790        1.59050        0.35370
C          1.51290        0.15680        0.43650
C          0.03540       -0.01940       -0.02850
C         -0.96480       -0.73280        0.91340
C         -1.34950       -2.06230        0.21340
C         -0.89950       -1.83850       -1.21000
C         -0.16070       -0.73760       -1.33530
H         -0.61540        2.00050        0.70390
H         -0.12820        2.00390       -1.01540
H          2.27560       -0.25070       -0.23940
H          1.72100       -0.18770        1.45880
H         -0.55760       -0.88120        1.91730
H         -1.85630       -0.10540        1.02130
H         -0.83120       -2.92590        0.65230
H         -2.42060       -2.28070        0.29120
H         -1.13600       -2.52700       -2.01410
H          0.30160       -0.38800       -2.25290
