18
gdb 5903	3.90792	1.25429	1.20342	0.1669	79.54	-0.2575	0.0377	0.2952	1082.9212	0.149583	-310.609538	-310.599995	-310.599051	-310.642967	35.698
C          0.05110        1.56830        0.00280
C          0.04500        0.02440        0.02160
C          0.82160       -0.49540        1.25070
C         -1.42760       -0.50830        0.04990
C         -2.18990       -0.08680        1.21840
C         -2.81650        0.26250        2.18350
C          0.67120       -0.48260       -1.20350
C          1.17610       -0.90290       -2.21050
H          1.07650        1.94620       -0.02750
H         -0.47760        1.95050       -0.87520
H         -0.44010        1.95520        0.89980
H          0.34410       -0.14560        2.17010
H          0.84390       -1.58890        1.26500
H          1.85360       -0.13520        1.23120
H         -1.93560       -0.17240       -0.86150
H         -1.40140       -1.60310        0.00300
H         -3.37880        0.56530        3.03180
H          1.62910       -1.27000       -3.09810
