12
gdb 5060	3.4706	2.49921	1.71576	5.6824	63.09	-0.2565	-0.0974	0.1591	728.0411	0.085837	-377.551476	-377.545515	-377.54457	-377.581533	22.28
O         -0.01920        0.52460       -1.05810
C         -0.01800        1.31710       -0.15620
N         -1.19820        1.75760        0.46890
C         -1.52880        2.99190        0.34770
C         -0.73440        4.06760       -0.22320
C          0.62110        4.08610       -0.24130
C          1.45930        3.03260        0.30790
N          1.16590        1.78990        0.43740
H         -2.50360        3.28050        0.74800
H         -1.27400        4.96190       -0.52360
H          1.12790        4.99460       -0.55560
H          2.43630        3.34780        0.68230
