16
gdb 15221	2.60251	1.50129	1.13539	3.46	68.18	-0.2543	-0.042	0.2123	1065.3428	0.128125	-383.745281	-383.736842	-383.735898	-383.77866	29.68
C         -0.15640        1.61400       -0.03970
C          0.02330        0.10960        0.02850
C          1.34130       -0.58700       -0.22940
C          2.59530        0.15470       -0.51440
O          3.45300       -0.26940       -1.24970
C          0.69740       -0.59990        1.18230
C          1.29910        0.12870        2.32730
O          1.30920       -0.31240        3.45040
H          0.69410        2.17380        0.35330
H         -0.30630        1.92830       -1.07730
H         -1.04030        1.91360        0.53200
H         -0.82940       -0.43700       -0.36540
H          1.30550       -1.53980       -0.74720
H          2.71070        1.14330       -0.02240
H          0.28940       -1.56010        1.48030
H          1.73940        1.12390        2.10690
