14
gdb 21298	7.21777	1.33965	1.14618	0.5977	60.18	-0.2574	-0.0112	0.2462	1013.2673	0.106862	-415.865819	-415.858143	-415.857199	-415.898496	26.243
C          0.01260        1.37500        0.02580
O          0.28060       -0.03030        0.08150
C          0.69220       -0.57840       -1.05170
N          0.85940        0.07670       -2.17660
O          1.29620       -0.94080       -3.04950
C          1.33380       -2.07260       -2.33420
C          1.76660       -3.31740       -3.01990
N          0.97400       -1.92110       -1.09540
H          0.91420        1.92820       -0.25400
H         -0.77510        1.58820       -0.70310
H         -0.31010        1.65440        1.02840
H          2.78020       -3.20510       -3.41620
H          1.74440       -4.14460       -2.31100
H          1.10500       -3.54210       -3.86180
