12
gdb 20318	6.43796	1.321	1.10347	3.3093	60.33	-0.2727	-0.0422	0.2305	977.6816	0.082643	-377.462779	-377.45582	-377.454876	-377.494697	24.838
C         -0.39100       -0.80970       -0.96540
C         -0.08190        0.05950       -0.19640
C          0.30410        1.11810        0.72950
C          1.52640        1.86500        0.28420
C          2.32340        1.73340       -0.80680
O          3.29250        2.64390       -0.74780
N          3.07530        3.38020        0.45590
N          2.05630        2.90500        1.01830
H         -0.67650       -1.58220       -1.63620
H         -0.52590        1.82570        0.85420
H          0.48290        0.69480        1.72660
H          2.30890        1.06710       -1.65240
