16
gdb 9232	4.31854	1.14032	1.00964	1.9358	68.41	-0.2363	0.0213	0.2576	1158.3499	0.129157	-379.881855	-379.87292	-379.871976	-379.915534	32.448
N         -0.20780        0.62300       -0.98610
C         -0.22870       -0.30710        0.02360
C          1.13400       -0.91370        0.32510
O          1.92230       -1.11390       -0.84290
N         -1.21450       -0.65600        0.76180
C         -2.49570        0.02300        0.56260
C         -3.10890       -0.17650       -0.75650
C         -3.58100       -0.33630       -1.85210
H          0.60840        0.57030       -1.57910
H         -1.07670        0.81590       -1.46270
H          1.70480       -0.21550        0.94760
H          0.97870       -1.83230        0.89900
H          1.53840       -1.84960       -1.33170
H         -3.19030       -0.34460        1.32600
H         -2.39260        1.10730        0.73470
H         -4.02200       -0.49350       -2.80540
