16
gdb 1682	4.28424	1.96415	1.4566	3.3432	57.58	-0.2395	0.035	0.2744	845.3709	0.13492	-362.942862	-362.934257	-362.933313	-362.976204	29.777
C          0.11940        1.50860       -0.74230
O         -0.20250        0.13570       -0.79080
C          0.91070       -0.73130       -0.96750
C          1.71660       -0.94250        0.31500
C          0.41450       -2.08270       -1.51330
N         -0.89150       -2.10480       -1.87230
O          1.17400       -3.02730       -1.62310
H          0.72590        1.76320        0.13750
H          0.66370        1.82680       -1.64450
H         -0.82300        2.05860       -0.68550
H          1.57170       -0.31950       -1.74820
H          2.21780       -0.02320        0.62910
H          1.05770       -1.27560        1.12250
H          2.46930       -1.71230        0.13630
H         -1.46850       -1.30040       -1.69660
H         -1.28770       -2.96580       -2.20890
