13
gdb 1774	5.09165	1.93539	1.76647	2.3038	56.83	-0.2422	0.0231	0.2653	731.6978	0.098941	-344.390227	-344.382893	-344.381949	-344.420997	27.548
O          0.05840        1.36550       -0.03350
C          0.06510       -0.01850        0.03030
C         -0.42900       -0.74110        1.25710
C         -1.26940       -0.74390       -0.02120
O         -2.34180        0.16620       -0.07530
C         -1.43400       -1.95550       -0.77300
C         -1.57610       -2.97950       -1.38850
H         -0.87040        1.63600       -0.03080
H          0.89160       -0.45440       -0.52080
H          0.04650       -1.66940        1.55230
H         -0.80970       -0.12430        2.06470
H         -3.05180       -0.16250        0.48680
H         -1.69910       -3.87620       -1.94370
