18
gdb 7325	4.28973	1.13866	0.91569	0.4708	71.68	-0.2254	-0.0548	0.1706	1277.9201	0.152016	-381.154028	-381.14435	-381.143405	-381.189652	33.419
C         -0.07070        1.52520       -0.10140
C          0.06670        0.01330        0.04130
N          0.58690       -0.57310       -1.17660
C          0.72460       -1.90790       -1.34950
N          0.36470       -2.75710       -0.45280
C          1.34350       -2.24790       -2.70650
C          1.52400       -3.70770       -3.05970
O          1.67570       -1.35700       -3.45800
H          0.89790        1.99290       -0.30990
H         -0.75700        1.78460       -0.91410
H         -0.45970        1.96010        0.82280
H          0.72360       -0.23740        0.88600
H         -0.90230       -0.44730        0.26900
H          0.94820        0.00830       -1.91650
H          0.53160       -3.70880       -0.76820
H          0.56310       -4.23240       -3.04130
H          1.96180       -3.77930       -4.05540
H          2.17970       -4.20210       -2.33520
