13
gdb 20926	3.51752	1.94315	1.36403	3.7051	55.83	-0.2806	-0.0511	0.2296	868.1478	0.09514	-431.904856	-431.897659	-431.896714	-431.937347	24.917
C         -0.08270        1.57860       -0.07960
C          0.07060        0.05950       -0.04240
N          0.74410       -0.46730       -1.22120
N          0.15940       -0.53220       -2.43210
N          0.96330       -1.00350       -3.26710
O          2.18430       -1.28200       -2.60890
C          2.04510       -0.93400       -1.29050
O          2.87200       -1.02820       -0.42940
H          0.89370        2.06850       -0.12540
H         -0.67130        1.88910       -0.94700
H         -0.59650        1.91830        0.82400
H          0.68960       -0.25830        0.80040
H         -0.90080       -0.43600        0.03830
