13
gdb 21579	3.52988	2.33797	1.40695	3.0622	65.22	-0.2104	-0.0342	0.1762	806.0524	0.098785	-394.83135	-394.824821	-394.823877	-394.861766	25.141
N          0.02060        1.38200        0.10490
C         -0.07550        0.03240        0.03860
C         -1.21530       -0.72960        0.02180
C         -1.10040       -2.14310       -0.00910
N          0.02750       -2.79900       -0.02820
N          1.13510       -2.01870       -0.02010
C          1.22930       -0.64860        0.00580
O          2.30140       -0.05140       -0.00490
H          0.94930        1.75220       -0.03740
H         -0.77270        1.96840       -0.08440
H         -2.19870       -0.27110        0.03660
H         -1.99100       -2.76260       -0.01730
H          2.01030       -2.52430       -0.04480
