22
gdb 12411	2.73389	1.91786	1.38704	1.6231	77.16	-0.2561	0.0624	0.3185	1001.5931	0.202174	-350.233783	-350.225464	-350.22452	-350.265782	32.963
C         -0.01360        1.56550        0.01100
C          0.05020        0.03600        0.00400
C          0.73650       -0.51100       -1.26170
C          0.78540       -2.04570       -1.27470
C          1.45750       -2.59510       -0.00820
C          0.78400       -2.05040        1.26110
C          0.73450       -0.51440        1.27640
O          2.03060        0.05120        1.47970
H          0.99190        1.99250        0.06250
H         -0.50490        1.94380       -0.89150
H         -0.57250        1.93390        0.87810
H         -0.97840       -0.35470        0.01450
H          0.21710       -0.13820       -2.15190
H          1.75910       -0.10900       -1.32540
H         -0.23970       -2.43680       -1.33440
H          1.30700       -2.40300       -2.16980
H          1.43490       -3.69010       -0.00400
H          2.52320       -2.32160       -0.01130
H         -0.24320       -2.43440        1.31760
H          1.30750       -2.39750        2.15810
H          0.16300       -0.18310        2.15130
H          2.60670       -0.25440        0.77210
