14
gdb 2084	4.93782	2.63898	1.83114	5.2582	53.93	-0.2506	0.0572	0.3078	673.8036	0.116324	-361.764881	-361.758682	-361.757738	-361.795214	22.564
O          0.01290       -0.05180        0.07560
C         -0.01900        1.15150        0.00570
N         -1.18490        1.87200       -0.00780
C         -1.34040        3.31800        0.00790
C         -0.01680        3.95320        0.42170
C          1.10070        3.26210       -0.34340
O          1.14080        1.86190       -0.04650
H         -2.00450        1.28780        0.01830
H         -1.63700        3.68790       -0.98490
H         -2.14020        3.58990        0.70570
H         -0.02350        5.02530        0.20480
H          0.14970        3.82430        1.49650
H          0.97260        3.40040       -1.42620
H          2.08590        3.64450       -0.06740
