10
gdb 146	12.11336	4.15999	3.92501	2.03	40.19	-0.2639	-0.0381	0.2258	363.3567	0.079887	-247.184334	-247.179519	-247.178575	-247.211988	16.144
O         -0.10680        0.26890        0.60580
C          0.10930        1.16760       -0.17490
C          1.27910        2.07820       -0.05880
C          1.49640        2.70140        1.29280
N          2.38360        1.65520        0.81540
H         -0.56960        1.36250       -1.03160
H          1.55810        2.63260       -0.95000
H          1.92540        3.69810        1.33860
H          0.76910        2.46190        2.06350
H          2.10110        0.76830        1.23500
