15
gdb 14895	3.29303	1.88697	1.69389	2.0262	66.34	-0.2479	0.0205	0.2684	827.4873	0.119993	-362.636719	-362.629608	-362.628664	-362.668098	26.57
C         -0.04920       -1.25220       -0.11710
C         -0.03070       -0.05240       -0.05170
C         -0.00520        1.40450        0.03050
C         -0.70160        1.91390        1.30350
O          0.03820        1.57140        2.47740
C          1.38760        1.65110        2.36610
N          2.09760        1.85000        1.34050
C          1.43830        1.96770        0.04750
H         -0.06390       -2.31230       -0.17790
H         -0.54140        1.81670       -0.83370
H         -0.79970        3.00580        1.25260
H         -1.69200        1.47410        1.43120
H          1.84500        1.50510        3.34260
H          2.04950        1.44860       -0.69660
H          1.41730        3.02550       -0.24500
