14
gdb 5666	5.1175	2.13031	1.51829	0.3907	68.72	-0.1976	-0.0043	0.1933	781.7285	0.109835	-345.432255	-345.426553	-345.425609	-345.461824	22.966
C         -0.07620        1.47680        0.01080
C          1.39490        1.88600       -0.00130
C          2.20600        0.80760       -0.01490
C          1.38010       -0.40310       -0.01310
C          0.07760       -0.00530        0.00160
O         -0.77460       -1.04860        0.00450
C          0.02670       -2.16650       -0.00900
C          1.35050       -1.83570       -0.02020
H         -0.59710        1.85860        0.89860
H         -0.61420        1.86780       -0.86250
H          1.70660        2.92170        0.00120
H          3.28800        0.83170       -0.02530
H         -0.49960       -3.10640       -0.00870
H          2.17260       -2.53440       -0.03180
