11
gdb 21336	6.13551	1.35826	1.21971	3.5817	55.65	-0.3124	-0.0495	0.2629	917.4488	0.073381	-393.589944	-393.583438	-393.582494	-393.622005	22.109
N         -0.08380       -1.12320        0.34390
C         -0.02510        0.00580        0.11120
C          0.03240        1.43770       -0.18860
C          1.42410        1.99210       -0.15620
N          2.05310        2.59700       -1.11600
C          3.24960        2.90040       -0.50890
N          3.35790        2.51440        0.73160
O          2.12360        1.89950        0.97770
H         -0.37420        1.62220       -1.18590
H         -0.59500        1.97390        0.53330
H          4.05470        3.41990       -1.00740
