17
gdb 1100	3.2778	2.35057	1.96982	2.5591	60.44	-0.2405	-0.0104	0.2301	764.3556	0.144105	-346.883049	-346.874108	-346.873164	-346.91654	31.978
C          0.38960        1.43940        0.04080
C         -0.13070        0.02100       -0.00160
O         -0.60410       -0.53010        0.96630
C         -0.04860       -0.74410       -1.34070
C          0.82680       -1.98960       -1.13490
C         -1.47350       -1.12730       -1.76860
O          0.54460        0.13800       -2.29370
H          1.44300        1.46310       -0.25530
H         -0.14010        2.05680       -0.69130
H          0.26360        1.84190        1.04620
H          0.42890       -2.60330       -0.32390
H          0.85080       -2.59120       -2.05080
H          1.85240       -1.70010       -0.88770
H         -2.06760       -0.23060       -1.96780
H         -1.44480       -1.73080       -2.68320
H         -1.96280       -1.70670       -0.98270
H          0.60000       -0.33050       -3.13270
