16
gdb 10136	2.83548	1.25994	0.91788	4.5228	69.72	-0.3363	-0.0089	0.3274	1235.9882	0.12974	-342.814125	-342.805232	-342.804288	-342.848221	30.536
C         -0.00090        1.57790        0.03720
C         -0.00110        0.04740       -0.00540
C         -1.41950       -0.52840       -0.00240
C         -1.44070       -2.08440       -0.03190
C         -2.81050       -2.59740        0.10860
N         -3.89510       -2.96760        0.24710
C         -0.81390       -2.61530       -1.25170
N         -0.29670       -3.00490       -2.20760
H          1.02080        1.96750        0.03570
H         -0.51950        1.99780       -0.83100
H         -0.50040        1.95190        0.93730
H          0.53110       -0.29830       -0.89900
H          0.55190       -0.34650        0.85750
H         -1.95800       -0.21670        0.89860
H         -1.98890       -0.15820       -0.86090
H         -0.86010       -2.45790        0.82230
