17
gdb 12578	2.95124	2.06637	1.244	5.5752	74.69	-0.2112	-0.007	0.2042	958.1408	0.142519	-363.924854	-363.916536	-363.915592	-363.957568	30.516
C          0.01180        1.55820        0.02700
C         -0.01720        0.06140        0.01700
C         -1.10450       -0.75270        0.03240
N         -2.41160       -0.37440        0.10370
C         -0.74970       -2.22210        0.01840
C          0.78840       -2.23120       -0.01500
C          1.19810       -0.74660       -0.01630
O          2.34470       -0.34290       -0.04620
H          1.04870        1.88970       -0.07400
H         -0.56540        1.99390       -0.79950
H         -0.38680        1.97730        0.95960
H         -2.64470        0.58890       -0.07770
H         -3.12220       -1.04170       -0.14830
H         -1.15980       -2.72340        0.90340
H         -1.19530       -2.71810       -0.85350
H          1.22940       -2.73130        0.85190
H          1.19280       -2.72260       -0.90440
