18
gdb 7453	2.86013	1.64033	1.13873	2.5963	65.03	-0.2564	-0.0246	0.2318	1060.1223	0.150393	-422.098686	-422.089205	-422.088261	-422.132881	34.221
C          0.01620        1.54930       -0.03560
C          0.00990        0.03450        0.14120
O          0.59620       -0.34930        1.38150
C         -1.42920       -0.54110       -0.01600
O         -2.01480       -0.04870       -1.19090
C         -1.43410       -2.07900       -0.06610
C         -1.10250       -2.86780        1.17150
O         -1.72610       -2.60710       -1.12100
H          1.03840        1.92950        0.04320
H         -0.40200        1.82430       -1.00470
H         -0.59350        2.02980        0.74120
H          0.64030       -0.42460       -0.62970
H          0.21530        0.20600        2.07100
H         -2.01360       -0.21770        0.86300
H         -2.12750       -0.83420       -1.75480
H         -0.13580       -2.54790        1.56870
H         -1.84610       -2.65540        1.94900
H         -1.10780       -3.93460        0.94460
