15
gdb 5036	3.48521	2.30499	1.39942	3.7931	71.19	-0.2114	-0.0337	0.1777	847.4273	0.121153	-362.73548	-362.728605	-362.727661	-362.766598	25.822
C         -0.01030        1.45160        0.00580
N          0.00610       -0.00720       -0.03040
C         -0.09790       -0.68650       -1.20530
C         -0.08400       -2.04730       -1.25390
C          0.04340       -2.75900       -0.03170
C          0.14860       -2.09540        1.15320
C          0.13620       -0.65090        1.22900
O          0.22470        0.02790        2.24300
H          0.91310        1.82430        0.45530
H         -0.11410        1.83500       -1.00990
H         -0.83970        1.80030        0.62540
H         -0.19190       -0.07320       -2.09400
H         -0.16870       -2.55630       -2.20400
H          0.05680       -3.84470       -0.04660
H          0.24680       -2.61300        2.09940
