16
gdb 11079	2.22228	2.15983	1.88041	0.4288	60.82	-0.2272	0.0654	0.2926	838.6859	0.128676	-420.829988	-420.821826	-420.820882	-420.861885	30.902
O         -0.15820        1.40860       -0.09050
C         -0.12180        0.01240        0.02320
C         -0.44910       -0.75220        1.27140
O          0.48960       -1.62780        1.78000
C         -1.53340       -0.03580        2.07690
C         -2.47370       -0.06760        0.82690
C         -1.38720       -0.78840        0.02530
O         -1.63890       -1.80540       -0.87720
H          0.58940        1.76730        0.39960
H          0.67090       -0.48070       -0.54350
H          0.02420       -2.36470        2.19160
H         -1.91500       -0.64930        2.89790
H         -1.27020        0.95260        2.46370
H         -3.34650       -0.70560        0.98000
H         -2.79010        0.90460        0.44170
H         -1.59940       -1.44310       -1.76910
