17
gdb 12221	3.92122	1.42663	1.13612	4.0659	66.95	-0.2402	0.0239	0.2641	1038.7296	0.141063	-401.006857	-400.998223	-400.997278	-401.04072	30.258
C         -0.32070        1.46290        0.03130
C          0.00460       -0.02300       -0.02430
C          0.80830       -0.52750       -1.26770
O          1.06350        0.50210       -2.18800
C          1.97070       -0.91590       -0.30250
N          1.14040       -0.45740        0.80990
C          1.24690       -0.75880        2.12280
O          2.19740       -1.32440        2.62520
H          0.56500        2.06620       -0.17570
H         -1.08500        1.70980       -0.71130
H         -0.70590        1.72890        1.02050
H         -0.89970       -0.61550        0.16150
H          0.34330       -1.39370       -1.75270
H          1.57940        0.14120       -2.91560
H          2.23020       -1.97790       -0.24690
H          2.88120       -0.32480       -0.44860
H          0.36110       -0.42130        2.70010
