19
gdb 7160	5.97173	0.79309	0.73726	3.9757	72.34	-0.275	0.0325	0.3075	1494.9201	0.163948	-365.080363	-365.070625	-365.069681	-365.115478	33.845
C         -0.02850        1.61510       -0.06130
C          0.01990        0.08290        0.00110
C          0.78750       -0.44710        1.22280
C          2.26660       -0.07630        1.24890
O          2.84810       -0.75250        2.35290
C         -1.40860       -0.51700        0.01180
C         -2.18040       -0.18750       -1.18450
N         -2.77330        0.08020       -2.13990
H          0.97210        2.04260       -0.16520
H         -0.62350        1.95530       -0.91370
H         -0.47630        2.02890        0.85030
H          0.51730       -0.28540       -0.90600
H          0.31770       -0.08450        2.14640
H          0.72660       -1.54190        1.25120
H          2.74030       -0.37830        0.29980
H          2.39090        1.01270        1.34410
H          3.77390       -0.49870        2.40880
H         -1.35820       -1.60830        0.09790
H         -1.95830       -0.15690        0.89040
