13
gdb 4514	3.64727	1.82853	1.22591	0.4737	56.01	-0.1802	0.0607	0.2409	902.6272	0.096888	-431.952627	-431.945029	-431.944084	-431.984066	28.332
N          0.20620        1.46340        0.07110
C          0.02920        0.07200       -0.00320
C         -1.03700       -0.78190       -0.04980
O         -2.34710       -0.43750       -0.03270
N         -0.64660       -2.09980       -0.11970
C          0.66620       -2.04830       -0.11570
O          1.50200       -3.10050       -0.17100
N          1.14530       -0.79520       -0.04840
H         -0.20010        1.86050        0.91150
H         -0.19880        1.94760       -0.72300
H         -2.84310       -1.26310       -0.07710
H          0.94290       -3.88610       -0.21350
H          2.10870       -0.50760       -0.03210
