15
gdb 5400	5.15472	1.60253	1.23207	1.7944	70.92	-0.2302	-0.0197	0.2105	945.1819	0.121224	-362.711153	-362.704431	-362.703487	-362.742141	25.24
C          0.06410        1.40020        0.00710
O         -0.00250       -0.01560        0.00320
C         -1.22780       -0.59880        0.01090
C         -2.44750        0.08660        0.02240
N         -3.63220       -0.53280        0.02960
C         -3.64700       -1.86400        0.02560
C         -2.48450       -2.63620        0.01430
C         -1.25670       -1.99620        0.00680
H          1.12550        1.65250       -0.00030
H         -0.41590        1.82960       -0.88130
H         -0.40220        1.82400        0.90540
H         -2.47880        1.17130        0.02600
H         -4.62530       -2.33760        0.03170
H         -2.54440       -3.71920        0.01140
H         -0.31960       -2.54180       -0.00210
