15
gdb 6364	5.53901	1.06088	0.90736	5.2263	59.79	-0.2415	-0.0063	0.2352	1217.5818	0.118819	-433.174037	-433.164964	-433.164019	-433.208966	31.093
N          0.34090        1.37130       -0.04170
C         -0.01140       -0.02250        0.14020
C         -1.50330       -0.34430       -0.07490
O         -2.32170        0.50650       -0.31370
N         -1.78180       -1.70730        0.02830
C         -3.05570       -2.31450        0.05010
N         -2.95740       -3.69770       -0.01150
O         -4.09630       -1.72180        0.16790
H          0.08570        1.65270       -0.98480
H         -0.25560        1.93550        0.55840
H          0.58730       -0.64280       -0.54040
H          0.26150       -0.33830        1.15660
H         -0.99390       -2.31120        0.21030
H         -2.21640       -4.10320       -0.56340
H         -3.85440       -4.14470       -0.13010
