15
gdb 8260	7.39555	0.96533	0.89264	1.5863	63.32	-0.2482	-0.0383	0.2099	1210.1744	0.116143	-399.787467	-399.77953	-399.778586	-399.82088	27.567
O         -0.18340       -0.05040        0.29070
C         -0.01490        1.10290       -0.00340
C          1.35010        1.75870       -0.15590
N          1.32860        2.77720       -1.18120
C          1.39090        2.34200       -2.59980
C          2.42350        3.45530       -2.83440
O          2.93490        3.95210       -3.78940
C          2.50490        3.67040       -1.31450
H         -0.86310        1.80250       -0.17720
H          1.56810        2.24160        0.80780
H          2.10860        0.97010       -0.30880
H          1.83090        1.34240       -2.75020
H          0.44950        2.40400       -3.15490
H          2.36320        4.69010       -0.94160
H          3.44160        3.26330       -0.90120
