15
gdb 13954	5.14914	1.30136	1.21243	3.0625	64.9	-0.2505	0.0238	0.2743	984.0957	0.11894	-362.627555	-362.620368	-362.619424	-362.65958	26.353
N         -0.09570       -1.14990        0.30070
C         -0.08060       -0.01050        0.11000
C         -0.03570        1.43440       -0.13990
C          1.36910        1.98100       -0.10250
C          2.08550        2.41000        1.16280
C          1.90130        3.38890        0.04340
O          2.89520        3.20330       -0.96330
C          2.39960        1.86170       -1.22500
H         -0.50240        1.62960       -1.11340
H         -0.65710        1.93390        0.61200
H          1.43610        2.55380        2.02160
H          3.08010        2.03850        1.39280
H          1.42160        4.35840        0.11780
H          3.17770        1.09740       -1.12520
H          1.95060        1.80870       -2.22410
