16
gdb 3517	7.2023	1.70664	1.49348	2.6639	61.09	-0.2375	0.0792	0.3166	829.718	0.137964	-325.723538	-325.716817	-325.715872	-325.754744	24.224
C          1.12850        0.57560       -0.72270
N         -0.33150        0.73350       -0.79330
C          0.29220        0.37730        0.49030
C         -0.00070       -0.99350        1.02180
C          0.92210       -1.55140        2.13100
C         -0.38000       -1.69200        2.94210
O         -1.13980       -1.01570        1.91990
H          1.51840       -0.28430       -1.26130
H          1.76260        1.45720       -0.76360
H         -0.58100        1.71850       -0.80030
H          0.34730        1.14810        1.25810
H         -0.15550       -1.67810        0.17690
H          1.46040       -2.47090        1.89810
H          1.62360       -0.81500        2.52980
H         -0.72190       -2.72500        3.08880
H         -0.42430       -1.16630        3.90310
