13
gdb 2506	3.27325	2.28069	1.41652	4.2783	59.99	-0.2564	0.0002	0.2566	823.8423	0.100469	-303.453218	-303.445456	-303.444512	-303.48515	26.903
C          0.12580        1.08850       -0.71830
N         -0.26260        0.40380        0.51320
C         -1.47840       -0.40020        0.37320
C         -1.38460       -1.52430       -0.57690
C         -1.25320       -2.41660       -1.37030
C         -1.88940       -0.89260        1.70350
N         -2.20840       -1.27960        2.74320
H          1.05220        1.63730       -0.53280
H          0.27800        0.41900       -1.57840
H         -0.64720        1.81760       -0.98460
H          0.49080       -0.19670        0.83290
H         -2.27120        0.27870        0.02760
H         -1.15080       -3.21360       -2.06550
