13
gdb 12168	3.89777	1.49728	1.18713	2.293	61.43	-0.2544	0.0126	0.267	960.0679	0.093539	-398.571677	-398.563615	-398.56267	-398.604505	28.447
O          0.02430        1.40920        0.18080
C          0.08520        0.01660        0.05660
C         -1.31420       -0.70150        0.00600
N         -0.90100       -1.21820       -1.31400
C          0.27090       -0.51500       -1.38760
O          1.08180       -0.32740       -2.25530
C         -1.61170       -1.70200        1.01490
C         -1.86200       -2.52330        1.85560
H          0.67000        1.77980       -0.43280
H          0.76020       -0.44390        0.78810
H         -2.11520        0.04210       -0.06140
H         -1.40730       -1.76200       -1.99830
H         -2.08200       -3.24920        2.59940
