17
gdb 4964	3.22339	2.18358	1.323	2.757	77.28	-0.2452	-0.015	0.2302	923.656	0.143862	-326.800565	-326.793142	-326.792198	-326.831991	27.97
C          0.01490        1.52460       -0.01830
C          0.01030        0.01870       -0.00630
C         -0.00920       -0.71040       -1.19410
C         -0.01320       -2.10080       -1.15310
N          0.00090       -2.80070       -0.01790
C          0.01960       -2.09750        1.11660
C          0.02530       -0.70410        1.19910
C          0.04680       -0.01920        2.54030
H          0.90250        1.92600        0.48470
H          0.00160        1.91210       -1.03970
H         -0.85530        1.93170        0.50980
H         -0.02130       -0.19640       -2.15040
H         -0.02830       -2.67640       -2.07590
H          0.03090       -2.68080        2.03640
H          0.93010        0.62020        2.65610
H         -0.82920        0.62520        2.68170
H          0.05650       -0.75110        3.35200
