15
gdb 2390	6.22101	2.03752	2.02885	2.4446	56.47	-0.2489	0.0618	0.3107	692.6136	0.125312	-345.60923	-345.602813	-345.601868	-345.64007	23.02
C         -0.04460        1.34980       -0.30220
C          1.42770        1.55860        0.10030
C          1.30010        0.16580        0.74480
C          2.25740       -1.00200        0.44230
O          2.64820       -1.08940        1.82810
C          1.64810       -0.12520        2.21650
O         -0.06740        0.05070        0.33200
H         -0.76840        2.03630        0.15140
H         -0.24320        1.28060       -1.37770
H          2.13930        1.62160       -0.72510
H          1.61560        2.37520        0.79980
H          1.73360       -1.90230        0.09520
H          3.10820       -0.79130       -0.21740
H          2.07140        0.70070        2.80150
H          0.81560       -0.58130        2.76820
