15
gdb 1553	5.6362	1.29063	1.10219	3.9247	58.01	-0.2675	0.0262	0.2937	1014.6456	0.124907	-341.834413	-341.826098	-341.825154	-341.867368	28.485
N          0.00680        1.49870        0.04920
C         -0.01560        0.03390       -0.01280
C         -1.44860       -0.50050        0.14880
C         -2.06580       -0.12440        1.49180
O         -3.34850       -0.72840        1.53960
C          0.59250       -0.49950       -1.25250
N          1.07550       -0.86970       -2.23570
H          0.96230        1.83740       -0.01240
H         -0.48620        1.88090       -0.75370
H          0.59070       -0.33590        0.82390
H         -2.07810       -0.11520       -0.66170
H         -1.44160       -1.59050        0.05160
H         -1.42000       -0.48910        2.30840
H         -2.12300        0.96770        1.58350
H         -3.79090       -0.43130        2.33990
