16
gdb 14804	2.55368	2.07527	1.30549	0.9194	76.03	-0.2511	0.0361	0.2872	950.4122	0.128743	-309.388089	-309.380005	-309.379061	-309.420499	30.434
C         -0.53800       -1.09780       -0.61310
C         -0.30420        0.02800       -0.26100
C         -0.02200        1.37580        0.17600
C          0.24200        1.65680        1.68750
C          1.31380        2.69600        1.27910
C          1.38270        2.04230       -0.14330
C          2.48110        1.11400       -0.31400
C          3.40090        0.35050       -0.44360
H         -0.73960       -2.09170       -0.92680
H         -0.79800        2.05560       -0.19180
H         -0.60910        1.99830        2.27930
H          0.68700        0.78390        2.16900
H          0.91010        3.71020        1.22240
H          2.24420        2.71170        1.84660
H          1.35480        2.74230       -0.98290
H          4.20830       -0.32800       -0.56580
