18
gdb 11359	4.52557	1.25761	1.05754	2.8704	74.57	-0.2384	-0.0141	0.2243	1137.1011	0.153146	-347.847913	-347.839795	-347.838851	-347.88102	29.872
C          0.04480        1.53250        0.22760
C         -0.03830        0.03390       -0.11260
C         -1.43330       -0.51640       -0.07090
C         -2.11820       -1.02550       -1.10150
C         -3.49430       -1.50250       -0.73140
C         -3.56930       -1.21570        0.77760
O         -4.49970       -1.45990        1.49890
C         -2.24470       -0.56280        1.20370
H          1.07940        1.88400        0.17320
H         -0.55300        2.12550       -0.47170
H         -0.32170        1.73680        1.23850
H          0.38580       -0.13930       -1.10820
H          0.59150       -0.52270        0.59600
H         -1.72810       -1.09910       -2.11130
H         -4.30520       -0.97410       -1.25050
H         -3.66300       -2.57130       -0.91790
H         -1.77260       -1.15330        2.00050
H         -2.44390        0.42470        1.63970
