14
gdb 1603	4.25463	2.00734	1.50605	3.6223	58.71	-0.2927	-0.0847	0.208	808.909	0.111296	-324.606491	-324.598498	-324.597553	-324.638932	27.267
C          0.19250        1.43620        0.07910
C         -0.07070       -0.08150       -0.02700
C         -1.56170       -0.42100       -0.04650
C          0.63010       -0.64230       -1.25030
O          0.09010       -1.16290       -2.19270
C          2.10960       -0.51310       -1.23520
N          3.26210       -0.41990       -1.21210
H          1.26170        1.66480        0.09200
H         -0.26460        1.96790       -0.76140
H         -0.24690        1.82010        1.00340
H          0.41150       -0.55960        0.83860
H         -2.05440        0.04120       -0.90630
H         -1.72460       -1.49940       -0.11300
H         -2.04030       -0.05220        0.86470
