16
gdb 10815	4.97711	1.52554	1.21822	4.9899	67.62	-0.2622	-0.0461	0.2161	970.2162	0.131475	-383.789518	-383.782269	-383.781324	-383.821021	27.157
C         -0.20920        1.51500        0.00550
C          0.03520        0.00000        0.01690
C          0.78680       -0.44240       -1.23770
O          1.16770       -1.82440       -1.21030
C          1.78450       -2.30140       -0.09500
O          2.32950       -3.37400       -0.12850
C          1.67440       -1.47880        1.13250
C          0.82850       -0.44970        1.21490
H          0.73620        2.06770       -0.01170
H         -0.79130        1.81210       -0.87230
H         -0.76370        1.82580        0.89600
H         -0.94180       -0.50660        0.04100
H          0.17430       -0.32930       -2.13520
H          1.68950        0.17310       -1.35780
H          2.25470       -1.83730        1.97430
H          0.68720        0.07980        2.15470
