16
gdb 11663	3.12226	2.04378	1.59157	2.2956	65.15	-0.229	0.008	0.237	852.3548	0.129959	-383.696424	-383.688981	-383.688037	-383.728407	27.424
C          0.00080        1.37110        0.05980
O         -0.04140       -0.04620       -0.07430
C         -1.29890       -0.56640       -0.00720
C         -2.49960       -0.44480       -1.03850
C         -3.03690       -1.41940        0.05760
C         -1.61930       -2.09090        0.02700
C         -2.40790       -0.44150        1.06570
O         -2.65060        0.11440        2.09270
H          1.05430        1.65520        0.05220
H         -0.50920        1.86520       -0.77840
H         -0.45970        1.69350        1.00070
H         -2.99850        0.51980       -1.14590
H         -2.29790       -0.91830       -2.00150
H         -4.00230       -1.91210        0.08590
H         -1.39300       -2.61630       -0.90330
H         -1.30170       -2.65250        0.90700
