20
gdb 17704	5.66426	1.43282	1.39128	0.001	79.57	-0.2786	0.0958	0.3744	998.6975	0.177337	-311.800687	-311.793321	-311.792377	-311.831765	29.453
C         -0.19230        1.62050       -0.09710
C         -0.05710        0.10630       -0.04110
C          1.18910       -0.57570       -0.64810
C          2.08970       -0.24780        0.59520
C          2.55230       -1.71670        0.72870
C          2.98980       -2.24900        2.08490
C          1.06780       -1.80840        0.31090
C          0.65400       -0.55540        1.16130
H          0.74240        2.12150        0.17590
H         -0.46740        1.95480       -1.10380
H         -0.97100        1.97220        0.58920
H         -1.00390       -0.37800       -0.31540
H          1.52480       -0.60790       -1.68720
H          2.66940        0.66300        0.75510
H          3.25290       -2.03200       -0.05610
H          2.30350       -1.94280        2.88140
H          3.03120       -3.34410        2.08400
H          3.98890       -1.88350        2.34800
H          0.45010       -2.69240        0.13660
H          0.35560       -0.55280        2.21110
