16
gdb 358	8.93073	1.94183	1.65971	2.5012	57.	-0.2412	-0.0057	0.2356	770.4633	0.140552	-271.666841	-271.658902	-271.657958	-271.699649	26.577
C         -0.06910        1.54240        0.10830
C          0.02750        0.02610       -0.04040
C          0.75000       -0.41860       -1.30760
O          1.19450        0.37840       -2.10270
C          0.88130       -1.92340       -1.51720
C          1.61360       -2.30020       -2.80270
H          0.92510        1.99570        0.13150
H         -0.60500        1.98330       -0.73610
H         -0.59390        1.80890        1.03000
H          0.54560       -0.42450        0.81760
H         -0.96910       -0.43680       -0.04170
H          1.38590       -2.34280       -0.63560
H         -0.12890       -2.35530       -1.49480
H          1.09540       -1.90000       -3.67780
H          2.62540       -1.88700       -2.81000
H          1.68130       -3.38680       -2.90600
