10
gdb 742	9.49364	3.55271	2.6275	3.7027	43.87	-0.3017	-0.0417	0.26	471.0874	0.073559	-301.316399	-301.311329	-301.310385	-301.344913	17.396
C         -0.02320        1.50950       -0.01960
C         -0.00140        0.01830        0.03650
N         -0.08750       -0.72790       -1.03370
O         -0.03450       -2.02410       -0.60010
N          0.08620       -2.08880        0.75810
C          0.10790       -0.85080        1.16300
H          0.89450        1.92990        0.40370
H         -0.11580        1.84360       -1.05410
H         -0.86480        1.90980        0.55450
H          0.19780       -0.61150        2.21160
