15
gdb 11981	2.68639	2.35822	1.76408	2.4571	61.55	-0.2362	-0.0235	0.2126	797.5284	0.1172	-399.761991	-399.754306	-399.753361	-399.793618	28.743
C         -0.04270        1.62620       -0.10070
C          0.01040        0.11270       -0.04600
O         -1.25200       -0.47630        0.21900
C          0.67830       -0.65830       -1.20080
N          2.06030       -0.18670       -1.25330
C          1.70640       -1.29300       -0.29560
C          1.06490       -0.60790        0.88050
O          1.09890       -0.74950        2.06920
H          0.91700        2.03240       -0.42770
H         -0.82930        1.94900       -0.79000
H         -0.27040        2.03010        0.89180
H         -1.43440       -0.35540        1.15870
H          0.16920       -1.11180       -2.04090
H          2.52020       -0.64110       -2.04220
H          2.20230       -2.25360       -0.35110
