16
gdb 16824	3.49252	2.06007	1.49308	4.5476	64.35	-0.2607	0.0117	0.2724	853.5229	0.131645	-383.781156	-383.774272	-383.773328	-383.812122	26.466
C          0.07680        1.54530       -0.07590
C          0.00830        0.03490        0.07860
O          0.58010       -0.59420       -1.09110
C          1.30710       -1.70920       -0.76650
O          1.66370       -2.50060       -1.59000
C          1.54890       -1.71820        0.71000
C          2.25340       -0.47340        1.22310
C          0.75980       -0.55870        1.26510
H          1.11300        1.89070       -0.11870
H         -0.43110        1.85810       -0.99190
H         -0.41510        2.02880        0.77390
H         -1.04270       -0.27980        0.12780
H          1.68980       -2.67150        1.19980
H          2.78450       -0.58140        2.16170
H          2.73600        0.17950        0.50370
H          0.24780       -0.61860        2.21740
