16
gdb 2150	3.45709	3.24995	1.91266	1.7673	60.21	-0.2442	0.0254	0.2696	698.9116	0.13761	-325.800532	-325.793567	-325.792623	-325.831866	25.468
C         -0.35490        1.53890       -0.05730
C          0.07290        0.08150       -0.05640
O          1.12440       -0.10250       -1.05150
C          2.08030       -0.83370       -0.43680
N          1.96320       -1.14280        0.78540
C          0.70540       -0.51370        1.24770
C          1.00410        0.46990        2.38120
H          0.46850        2.19800        0.22820
H         -0.69500        1.82850       -1.05530
H         -1.18260        1.69450        0.64130
H         -0.76550       -0.54490       -0.38220
H          2.91530       -1.10350       -1.07500
H          0.05300       -1.30060        1.64170
H          1.68180        1.26400        2.05420
H          0.08790        0.92980        2.76430
H          1.49000       -0.06450        3.20140
