18
gdb 16952	3.41893	2.19928	2.00047	1.5988	70.12	-0.2434	0.0118	0.2552	783.1444	0.156361	-347.80588	-347.799422	-347.798478	-347.836063	26.605
C         -0.16430        1.56470       -0.00320
C          0.04600        0.05240       -0.00490
C          0.93380       -0.50680       -1.16070
C          1.97740       -1.34760       -0.35200
O          1.17110       -1.83170        0.73050
C          0.80420       -0.54220        1.23650
C          2.15650        0.15310        1.34720
C          2.89020       -0.35090        0.35440
H          0.79080        2.09920       -0.00210
H         -0.72170        1.88230       -0.89050
H         -0.73440        1.88740        0.87560
H         -0.92830       -0.44480       -0.03730
H          0.35950       -1.15050       -1.83120
H          1.40480        0.27880       -1.75750
H          2.44550       -2.17430       -0.88490
H          0.20880       -0.63740        2.14440
H          2.40220        0.95310        2.03180
H          3.87890       -0.06120        0.02490
