15
gdb 16409	3.66893	2.27452	1.80018	5.0717	60.45	-0.2427	0.0098	0.2525	749.4145	0.122078	-399.804016	-399.797989	-399.797045	-399.834107	23.681
O          0.00400        0.01610       -0.29390
C          0.03150        1.16900        0.03000
O         -1.10670        1.80570        0.41180
C         -1.04270        3.18490        0.83130
C          0.34970        3.76550        0.65010
C          0.92270        3.37010       -0.73140
C          1.26680        2.05550        0.01490
N          1.28060        2.79520        1.33230
H         -1.78400        3.73210        0.23920
H         -1.32980        3.21730        1.88680
H          0.38910        4.80370        0.98800
H          0.25720        3.33420       -1.59920
H          1.82510        3.93580       -0.97550
H          2.14740        1.46890       -0.24100
H          2.19400        3.24070        1.41360
