18
gdb 14994	4.25729	1.48567	1.18341	2.5882	69.88	-0.2468	0.0147	0.2615	1021.5249	0.155178	-384.942162	-384.934571	-384.933627	-384.974136	28.889
O          0.05710        1.38660       -0.10320
C          0.04590       -0.02050        0.00130
C         -1.38480       -0.56070        0.08390
O         -2.03020       -0.07490       -1.08950
C         -3.27470       -0.70240       -1.35360
C         -3.08040       -2.18910       -1.65960
C         -2.17980       -2.80730       -0.62260
C         -1.43300       -2.06000        0.18700
H         -0.56670        1.59990       -0.80760
H          0.55070       -0.49990       -0.85240
H          0.59360       -0.28340        0.91230
H         -1.86280       -0.10720        0.97210
H         -3.94890       -0.58410       -0.49020
H         -3.71360       -0.16920       -2.20130
H         -4.05430       -2.69490       -1.67370
H         -2.65240       -2.31710       -2.66320
H         -2.16660       -3.89080       -0.53910
H         -0.81750       -2.51090        0.96150
