16
gdb 16977	4.02346	2.31959	2.17189	1.8087	68.79	-0.2289	0.0035	0.2324	706.2449	0.131774	-346.467209	-346.461531	-346.460587	-346.496446	24.505
C         -0.00290        1.60270       -0.21730
O          1.44880        1.48570        0.10080
C          1.07920        0.30500        0.86990
C          1.21250       -1.27120        1.00200
C         -0.39010       -1.04560        1.14930
C         -0.44210       -0.23150        2.44100
C          0.54330        0.64920        2.27070
C         -0.14260        0.07080        0.03950
H         -0.49630        2.26350        0.50080
H         -0.15350        1.94580       -1.24320
H          1.49790       -1.78890        0.08330
H          1.72440       -1.68030        1.87660
H         -1.08130       -1.87480        1.00340
H         -1.11430       -0.39050        3.27220
H          0.92250        1.44070        2.90070
H          0.12260       -0.42670       -0.89670
