20
gdb 18027	3.78212	1.90541	1.37732	0.2703	81.65	-0.2246	0.0311	0.2557	945.8368	0.180262	-311.876985	-311.87009	-311.869145	-311.907712	28.164
C          0.00860        1.56820       -0.05660
C          1.57200        1.47720        0.03100
C          1.36320        0.09020        0.60330
C          1.87400       -0.66590        1.56520
C          1.08950       -1.83510        2.11670
C         -0.26380       -2.06270        1.40400
C         -0.97390       -0.74680        1.02180
C         -0.05250        0.01070        0.07210
H         -0.41070        2.05940        0.82570
H         -0.41910        2.01770       -0.95590
H          2.02870        1.46650       -0.96550
H          2.09760        2.21240        0.64610
H          2.82620       -0.42730        2.03470
H          1.68470       -2.75710        2.07250
H          0.91730       -1.65720        3.18910
H         -0.09420       -2.64060        0.48630
H         -0.90970       -2.67710        2.04020
H         -1.95330       -0.95530        0.57670
H         -1.14870       -0.14410        1.92270
H         -0.08530       -0.43900       -0.93000
