16
gdb 20725	3.40027	1.94744	1.25769	0.9481	68.24	-0.2006	0.0309	0.2315	950.327	0.129999	-379.951397	-379.942568	-379.941624	-379.985197	30.585
C          0.01860        1.47940       -0.02200
C          0.02060       -0.01410        0.04840
N         -0.02930       -0.76800       -1.05060
N         -0.01010       -2.03460       -0.59930
C          0.05080       -2.13750        0.76040
C          0.08330       -3.42720        1.50740
C          0.07180       -0.83080        1.20390
O          0.13120       -0.46010        2.51850
H          0.92410        1.91320        0.42120
H         -0.02790        1.79640       -1.06600
H         -0.84300        1.91460        0.50020
H         -0.04060       -2.78780       -1.26420
H          0.95690       -4.03550        1.24390
H          0.13100       -3.22140        2.57890
H         -0.81080       -4.03460        1.32230
H          0.13260        0.50030        2.56480
