20
gdb 12963	2.2337	2.09122	1.71524	1.2263	74.73	-0.2383	0.0792	0.3175	934.4567	0.176075	-348.976129	-348.967476	-348.966532	-349.008483	33.138
C          0.10350        1.60820       -0.37950
C          0.23210        0.11500       -0.15060
C          1.47540       -0.72010       -0.37970
C          2.73180        0.00170        0.12690
C          2.13860       -0.00710        1.57970
C          2.10990        1.25150        2.44070
C          0.84840       -0.61890        1.01310
O          0.14780       -1.60780        1.69320
H          1.03440        2.14590       -0.18970
H         -0.18010        1.80760       -1.41900
H         -0.66880        2.04680        0.26270
H         -0.64860       -0.43750       -0.47840
H          1.47380       -1.55780       -1.06650
H          3.64350       -0.59220        0.03630
H          2.92310        0.98820       -0.30740
H          2.63820       -0.80530        2.13980
H          1.63340        2.09510        1.93450
H          1.56070        1.06950        3.37180
H          3.12490        1.55910        2.71620
H         -0.63100       -1.20760        2.09350
