20
gdb 6206	3.62386	1.46119	1.33844	1.3668	77.76	-0.2335	0.0225	0.256	1045.3818	0.175792	-349.031028	-349.022185	-349.021241	-349.063856	33.597
C          0.00270        1.52610        0.07140
C         -0.03480        0.03230        0.00640
C         -0.06700       -0.73300       -1.08630
C         -0.01300       -2.21420       -0.77250
C         -0.97660       -3.06570       -1.60200
O          1.32830       -2.72060       -0.93630
C         -0.30490       -2.24070        0.74680
C          0.00460       -0.81710        1.26070
H          0.90640        1.87350        0.58860
H         -0.01440        1.97820       -0.92390
H         -0.84910        1.91890        0.64120
H         -0.07330       -0.36080       -2.10740
H         -0.72520       -3.00820       -2.66800
H         -0.91330       -4.11520       -1.29830
H         -2.01050       -2.72570       -1.48400
H          1.60360       -2.52800       -1.83910
H         -1.36180       -2.47200        0.90930
H          0.28750       -3.01940        1.23190
H          0.99570       -0.75190        1.72990
H         -0.71380       -0.47750        2.01660
