18
gdb 8797	4.89181	1.14292	0.94253	2.0608	71.27	-0.2336	-0.0466	0.187	1252.7813	0.151999	-381.154436	-381.144684	-381.14374	-381.189908	33.296
C          0.05900        1.54810        0.04350
C          0.08490        0.02300       -0.00680
C          0.77620       -0.52030       -1.23470
O          1.26380        0.18770       -2.09240
C          0.85520       -2.03610       -1.38560
N          0.33460       -2.77170       -0.47090
N          1.49780       -2.40260       -2.52400
C          1.71150       -3.77270       -2.91430
H          1.07160        1.96040        0.03980
H         -0.46240        1.96280       -0.82350
H         -0.44980        1.89170        0.94830
H          0.58120       -0.41120        0.86930
H         -0.92240       -0.40920        0.02230
H          0.44570       -3.76620       -0.67450
H          1.82470       -1.63980       -3.09730
H          2.30990       -4.31830       -2.17170
H          0.76250       -4.31120       -3.04330
H          2.24690       -3.79530       -3.86490
