17
gdb 5389	4.9935	1.51768	1.17586	1.7721	80.24	-0.1905	0.0108	0.2013	1013.9904	0.144989	-326.790318	-326.783071	-326.782127	-326.821626	27.973
C          0.02040        1.44940        0.10620
N         -0.12900        0.02350       -0.09320
C          0.55270       -0.64950       -1.09810
C          1.15720        0.02280       -2.17190
C          1.79190       -0.69500       -3.18290
C          1.85030       -2.08420       -3.15080
C          1.25700       -2.75620       -2.08130
C          0.61770       -2.05460       -1.07060
H          1.06840        1.76870        0.22200
H         -0.40860        2.00640       -0.73440
H         -0.52960        1.73850        1.00460
H         -0.24620       -0.51000        0.75320
H          1.13200        1.10450       -2.22090
H          2.25060       -0.15210       -4.00360
H          2.34910       -2.63510       -3.93990
H          1.29240       -3.84020       -2.03280
H          0.15460       -2.58870       -0.24510
