9
gdb 21777	3.3539	2.61517	1.46941	3.5435	47.23	-0.3052	-0.1008	0.2044	728.734	0.047935	-470.473869	-470.467795	-470.466851	-470.504671	21.187
O         -0.03970        0.05630        0.41990
C         -0.00180        1.18590        0.06420
O         -1.15870        1.83880       -0.31090
C         -1.08250        3.12880       -0.71440
N         -0.06130        3.87630       -0.80890
O          1.17470        3.30510       -0.44940
C          1.28330        2.01380       -0.01880
O          2.34540        1.56560        0.27500
H         -2.04510        3.54410       -0.98510
