16
gdb 10647	2.92054	1.68828	1.31418	4.4028	66.08	-0.2379	0.0253	0.2632	955.476	0.130744	-379.905639	-379.897244	-379.896299	-379.938207	30.924
N         -0.27490        1.37610        0.12510
C         -0.16000       -0.05450        0.08470
C         -0.68610       -0.99170        1.14340
C         -1.40930       -0.87680       -0.20250
C         -2.77720       -0.17690       -0.29670
O         -3.06670        0.65770        0.81240
C         -1.27780       -1.97630       -1.12050
N         -1.19180       -2.85780       -1.86600
H         -1.10380        1.65210        0.64320
H          0.53260        1.77540        0.59270
H          0.73420       -0.38440       -0.43540
H         -0.16010       -1.91600        1.35280
H         -1.19120       -0.54210        1.99110
H         -2.78060        0.47670       -1.17390
H         -3.55860       -0.93370       -0.43860
H         -3.33670        0.09980        1.54860
