15
gdb 4008	3.52629	1.21988	0.91678	1.289	69.79	-0.2408	-0.0319	0.209	1216.849	0.114999	-399.701038	-399.691869	-399.690925	-399.735353	31.602
C          0.01880        1.38640       -0.05390
O         -0.01170       -0.01960        0.02430
C          0.61280       -0.62810       -1.06680
C          0.56490       -2.13650       -0.95500
N         -0.00550       -2.66670        0.06490
O          0.03080       -4.05320        0.02610
C          1.17480       -2.85880       -2.02150
C          1.70530       -3.41050       -2.95060
H          1.05020        1.77310       -0.07100
H         -0.50190        1.75780       -0.95080
H         -0.48840        1.76960        0.83410
H          0.13510       -0.33590       -2.01980
H          1.67130       -0.32020       -1.14910
H         -0.42660       -4.29120        0.84040
H          2.16830       -3.91750       -3.76120
