16
gdb 16954	3.55389	2.31013	2.11401	1.7563	63.11	-0.243	-0.0016	0.2413	731.3492	0.132038	-383.730742	-383.724525	-383.723581	-383.760724	25.224
C         -0.14580        1.55720       -0.04030
C          0.05230        0.05290        0.01450
O          0.88390       -0.40400       -1.06860
C          1.87450       -1.23750       -0.41910
O          1.17330       -1.81150        0.66010
C          0.81550       -0.54570        1.25110
C          2.16150        0.15690        1.33670
C          2.84480       -0.28680        0.27970
H          0.80910        2.08420        0.02490
H         -0.62460        1.83640       -0.98310
H         -0.79330        1.89080        0.77830
H         -0.91360       -0.46310       -0.05410
H          2.24470       -1.98260       -1.12000
H          0.22830       -0.67960        2.15710
H          2.42290        0.93630        2.03830
H          3.80430        0.03120       -0.10260
