18
gdb 8161	2.80874	2.55115	1.71328	2.8971	71.42	-0.2305	-0.003	0.2275	823.445	0.154902	-347.82465	-347.817601	-347.816657	-347.855543	28.02
C         -0.03440        1.54620        0.02500
C          0.04140        0.04200        0.03300
C          0.97890       -0.80360       -0.90550
C          0.69830       -1.93210        0.12570
C          0.66850       -0.80800        1.19880
C         -0.80130       -2.20260       -0.09600
C         -1.26050       -0.73040       -0.16060
O         -2.36790       -0.29100       -0.32300
H          0.95150        1.99810        0.17140
H         -0.44160        1.90790       -0.92470
H         -0.69880        1.90420        0.81820
H          0.67070       -0.95570       -1.94450
H          2.00830       -0.43840       -0.86730
H          1.35630       -2.79460        0.22100
H          1.66490       -0.44340        1.46080
H          0.07360       -0.96430        2.10390
H         -1.02910       -2.73090       -1.02720
H         -1.28790       -2.73460        0.72760
