12
gdb 20477	6.634	1.4582	1.29883	2.3266	55.58	-0.2803	-0.0382	0.242	881.2815	0.084764	-414.625876	-414.619635	-414.618691	-414.657424	21.836
C          0.20730        1.55000        0.10650
O          1.15810        0.54340       -0.21730
C         -0.17320        0.12500        0.06900
C         -0.38950       -0.65340        1.30900
N          0.35810       -0.54490        2.37730
O         -0.22770       -1.44570        3.27250
C         -1.26030       -1.99110        2.63120
N         -1.42630       -1.55910        1.42240
H          0.34490        2.02710        1.07460
H         -0.09290        2.19960       -0.71430
H         -0.74350       -0.25030       -0.77790
H         -1.84250       -2.72590        3.16750
