16
gdb 19314	7.03674	0.81195	0.80782	2.1101	77.47	-0.2301	0.0245	0.2546	1430.9986	0.13153	-342.692151	-342.684197	-342.683253	-342.726303	28.088
C         -0.32600        1.25240       -0.33360
N          0.92530        1.29820        0.42530
C          0.29710       -0.01850        0.14720
C         -0.23190       -0.75710        1.25910
C         -0.68010       -1.39820        2.17770
C         -1.21810       -2.17000        3.26080
C         -1.88540       -1.48000        4.40620
N         -2.68810       -2.25920        3.45960
H         -1.19070        1.64470        0.19230
H         -0.31170        1.44510       -1.40330
H          1.71210        1.42820       -0.20600
H          0.76510       -0.63130       -0.62080
H         -0.70740       -3.10820        3.46270
H         -1.80220       -1.90940        5.40050
H         -1.93240       -0.39570        4.37350
H         -3.14210       -1.63100        2.80040
