16
gdb 13856	4.20429	1.45678	1.41826	3.7866	60.97	-0.2419	-0.0241	0.2178	940.0677	0.129402	-420.889548	-420.881423	-420.880478	-420.923426	27.878
C          0.23240        0.86860       -1.01320
C          0.02140       -0.04640        0.16960
O          0.75140       -0.09800        1.12800
C         -1.21390       -0.96820        0.10030
O         -2.37450       -0.18540       -0.02960
C         -3.30180       -1.00160       -0.73750
C         -2.39880       -1.75390       -1.72050
O         -1.13820       -1.79940       -1.04870
H          1.11840        1.48330       -0.85430
H          0.34720        0.26870       -1.92150
H         -0.65070        1.49960       -1.15180
H         -1.24080       -1.58880        1.01040
H         -3.81350       -1.69200       -0.05180
H         -4.03910       -0.35270       -1.21360
H         -2.74080       -2.77350       -1.92350
H         -2.29330       -1.21700       -2.67130
