18
gdb 9629	3.54295	1.24473	1.10571	4.2804	70.14	-0.2459	-0.0199	0.226	1130.4782	0.151006	-384.938551	-384.92957	-384.928626	-384.972103	32.677
C          0.01310        1.59210       -0.26250
C          0.00890        0.12280        0.17840
C         -1.37170       -0.50420        0.10570
O         -2.32760        0.11440        0.92770
C         -1.87020       -1.13700       -1.15300
C         -1.56900       -2.01400        0.06900
C         -0.43630       -2.96450        0.01630
O         -0.40370       -4.01700        0.60560
H          1.02260        2.00930       -0.21430
H         -0.34510        1.70090       -1.29220
H         -0.62210        2.20270        0.38730
H          0.70460       -0.44630       -0.44670
H          0.37170        0.04560        1.21000
H         -2.58900        0.94190        0.50930
H         -2.91620       -1.02050       -1.41140
H         -1.19010       -1.21810       -1.99580
H         -2.42100       -2.36440        0.64000
H          0.41000       -2.65350       -0.63960
