18
gdb 11352	4.16541	1.30969	1.06172	2.3334	71.21	-0.2254	0.0249	0.2502	1125.4004	0.152739	-384.94041	-384.931827	-384.930883	-384.973842	30.692
C          0.09210        1.55350       -0.10200
C         -0.04590        0.04060        0.06830
O          0.54950       -0.62920       -1.05320
C          1.48180       -1.60480       -0.61030
C          1.53820       -1.45470        0.88910
C          2.45250       -2.27140        1.73840
O          2.26520       -1.93170        3.09960
C          0.66430       -0.52820        1.26660
H          1.14680        1.84350       -0.10930
H         -0.36370        1.86880       -1.04500
H         -0.41100        2.07950        0.71630
H         -1.12070       -0.21030        0.09610
H          1.15220       -2.61470       -0.91050
H          2.45820       -1.43320       -1.09180
H          2.25350       -3.34340        1.55890
H          3.49590       -2.09750        1.41920
H          2.86830       -2.46360        3.62620
H          0.47120       -0.21410        2.28300
