14
gdb 15302	3.07947	1.64065	1.17095	5.1381	64.73	-0.2753	0.0018	0.2771	987.4861	0.106642	-378.709807	-378.702022	-378.701077	-378.742755	27.169
N         -0.20910        1.16580        0.00120
C         -0.41590       -0.03670       -0.30140
O         -0.98630       -0.86290        0.62000
C         -1.00380       -2.21900        0.30820
C         -2.13440       -2.99660        0.87570
C         -2.07910       -2.76840       -0.63300
C         -3.00890       -1.87310       -1.25650
N         -3.74690       -1.15350       -1.78150
H          0.19540        1.66280       -0.78940
H         -0.19800       -0.53380       -1.25420
H         -0.02340       -2.68460        0.23880
H         -1.95680       -4.00290        1.23430
H         -2.87580       -2.42620        1.42190
H         -1.79100       -3.61270       -1.25050
