16
gdb 471	5.20474	3.4934	2.76418	1.3247	55.74	-0.2601	0.0738	0.3338	550.8423	0.144785	-271.648392	-271.642208	-271.641264	-271.678618	22.879
O         -0.28410        1.44460        0.30550
C         -0.00440        0.07100        0.02950
C          0.71080       -0.60180        1.21190
C         -0.42190       -0.80610        2.23010
C         -1.61160       -1.26920        1.35920
C         -1.36240       -0.65360       -0.04890
H          0.55550        1.89100        0.45600
H          0.56370       -0.01530       -0.90770
H          1.11740       -1.56910        0.88890
H          1.54850       -0.00540        1.59080
H         -0.16980       -1.51640        3.02200
H         -0.65410        0.15300        2.70290
H         -1.62750       -2.36240        1.29460
H         -2.57280       -0.96540        1.78130
H         -2.13170        0.06520       -0.33990
H         -1.33380       -1.43020       -0.81850
