14
gdb 13152	4.43031	1.43944	1.2083	4.0198	64.68	-0.252	-0.062	0.19	974.6237	0.10525	-382.488197	-382.480294	-382.479349	-382.52175	27.227
O          0.19240       -0.10140        0.03810
C          0.08310        1.10150        0.02770
C          1.23120        1.99550        0.08150
C          2.15980        2.76070        0.12340
C         -1.25330        1.82750       -0.08160
C         -1.61650        2.27860       -1.52470
C         -2.75980        1.25210       -1.37850
O         -2.37820        0.95310       -0.01720
H          2.99290        3.42010        0.16260
H         -1.29000        2.61970        0.67850
H         -1.92860        3.31950       -1.60750
H         -0.87040        2.06070       -2.29000
H         -3.77640        1.65630       -1.43480
H         -2.68420        0.36890       -2.02250
