17
gdb 2028	7.10062	1.6816	1.5918	1.9269	64.62	-0.2566	0.0786	0.3352	831.7555	0.147951	-309.691463	-309.684523	-309.683579	-309.722221	26.403
C         -0.65890        1.29520       -0.10360
C          0.20070        0.04990        0.04590
C          1.48530       -0.07380       -0.83520
C          2.20990       -0.59280        0.40690
C          3.04040       -1.78910        0.55130
O          3.59570       -0.46880        0.65880
C          1.09440       -0.08490        1.32050
H         -0.05610        2.20340        0.01040
H         -1.13630        1.33360       -1.08910
H         -1.45200        1.32470        0.65190
H         -0.41580       -0.84730       -0.07050
H          1.44670       -0.71950       -1.71590
H          1.86810        0.90870       -1.13200
H          3.01500       -2.36040        1.47900
H          3.34330       -2.35100       -0.33190
H          1.34680        0.89390        1.74270
H          0.75020       -0.73930        2.12520
