15
gdb 16206	3.15807	2.40718	1.56712	1.7547	62.63	-0.2523	0.0181	0.2704	807.6239	0.119777	-399.796346	-399.789551	-399.788606	-399.827394	25.699
N         -0.05540        1.27140       -0.20060
C         -0.02500        0.02100       -0.04580
O          1.08470       -0.74850        0.17120
C          0.64300       -2.08390        0.42950
O         -0.64250       -2.20300       -0.12030
C         -1.19070       -0.90500       -0.06310
C         -2.43640       -0.62080        0.74430
C         -2.46910       -0.61180       -0.76880
H          0.87600        1.67880       -0.11840
H          1.31690       -2.78760       -0.06500
H          0.63880       -2.24690        1.51880
H         -2.88520       -1.46840        1.24960
H         -2.48360        0.32700        1.26810
H         -2.53080        0.34300       -1.27810
H         -2.94740       -1.44790       -1.26600
