20
gdb 8433	2.69539	2.05653	1.76562	1.1319	74.35	-0.2442	0.0744	0.3186	891.569	0.175582	-348.980505	-348.972046	-348.971101	-349.012374	33.352
C         -0.10310        1.57560        0.02730
C          0.00520        0.05130        0.00740
C         -1.35520       -0.58860       -0.27570
C          1.13130       -0.57920       -0.89760
C          1.70680       -1.30210        0.32570
C          2.13860       -0.27670        1.35150
C          0.68320       -0.62860        1.22220
O         -0.02420       -1.20450        2.26740
H          0.85970        2.05290        0.23380
H         -0.46010        1.95510       -0.93710
H         -0.81390        1.90860        0.79310
H         -1.73850       -0.26220       -1.24890
H         -1.28630       -1.68060       -0.28160
H         -2.08700       -0.31160        0.49000
H          0.72640       -1.24640       -1.66220
H          1.81020        0.13420       -1.37730
H          2.07840       -2.31880        0.35010
H          2.60790       -0.69550        2.23650
H          2.53940        0.68590        1.04060
H         -0.07510       -0.56620        2.98700
