12
gdb 4241	3.9698	2.02811	1.34233	3.2855	59.74	-0.2554	-0.0481	0.2073	825.2523	0.086103	-414.720389	-414.714133	-414.713189	-414.751024	23.439
N         -0.06160        1.29360        0.35780
C         -0.00500        0.09820       -0.04050
N         -1.12760       -0.69360       -0.16390
C         -1.19570       -2.02180       -0.59050
O         -2.25400       -2.60750       -0.65410
C          0.11790       -2.57190       -0.92970
C          1.20280       -1.80280       -0.80920
O          1.18720       -0.51440       -0.38550
H          0.86410        1.71400        0.38340
H         -2.00130       -0.25120        0.08680
H          0.18170       -3.59410       -1.27210
H          2.21400       -2.11900       -1.03520
