20
gdb 9776	3.49901	1.51118	1.48171	1.0289	70.38	-0.2425	0.0847	0.3272	985.6545	0.17683	-386.134928	-386.126368	-386.125424	-386.168321	31.683
C          0.01890        1.41720        0.14880
O          0.05900        0.01020        0.04760
C          0.64550       -0.52720       -1.13640
C          2.11400       -0.12170       -1.29810
C          0.48890       -2.07110       -1.05260
C         -0.32230       -2.44160       -2.30810
O         -0.14110       -1.35710       -3.21190
C         -0.18050       -0.19120       -2.41180
H          1.01700        1.86330        0.25860
H         -0.47760        1.88860       -0.71210
H         -0.56030        1.64810        1.04660
H          2.70280       -0.45040       -0.43610
H          2.52100       -0.59330       -2.19760
H          2.23460        0.96010       -1.40880
H          1.46580       -2.56030       -1.05240
H         -0.02490       -2.33330       -0.12630
H          0.01680       -3.35320       -2.80570
H         -1.39040       -2.55710       -2.06370
H         -1.21360        0.04930       -2.10940
H          0.22060        0.63410       -3.00550
