16
gdb 15585	2.81643	2.11535	1.45982	1.1988	66.11	-0.254	0.0327	0.2867	887.269	0.129328	-383.702954	-383.694943	-383.693999	-383.735774	28.883
C         -0.12870        1.55990       -0.16500
C          0.07520        0.06670       -0.02160
O          0.97420       -0.40030       -1.02120
C          1.41420       -1.65900       -0.58880
O          1.32890       -1.68930        0.83290
C          0.76210       -0.45230        1.26770
C          1.78310        0.44440        1.81280
C          2.61490        1.17650        2.27820
H          0.82380        2.08620       -0.07700
H         -0.57010        1.78290       -1.13970
H         -0.80630        1.92710        0.61160
H         -0.88800       -0.46280       -0.11050
H          0.78000       -2.46920       -0.98550
H          2.45050       -1.79650       -0.91900
H          0.02250       -0.67870        2.04380
H          3.35480        1.81780        2.68990
