13
gdb 16088	4.67851	1.80577	1.5418	2.667	63.79	-0.2482	-0.0087	0.2394	796.4796	0.097504	-357.647539	-357.641126	-357.640181	-357.677936	24.427
N         -0.04290       -1.14000       -0.00310
C         -0.02230        0.01740        0.00130
C         -0.00070        1.44570        0.01120
C          0.40530        2.26300       -1.19490
C          1.28220        2.35660        0.02320
N          1.02770        3.38900        0.97780
C         -0.15470        3.20730        1.44240
N         -0.86800        2.13590        0.93620
H          0.80590        1.70600       -2.03370
H         -0.23030        3.10470       -1.44900
H          2.28930        1.95850       -0.01970
H         -0.62370        3.85870        2.17170
H         -1.51700        1.61500        1.50590
