18
gdb 6148	4.23613	1.34851	1.27231	2.1651	68.15	-0.2414	-0.0295	0.2119	1028.0723	0.150737	-384.942701	-384.933964	-384.93302	-384.97655	31.458
C         -0.39620        1.57690       -0.11430
C          0.04850        0.12250       -0.10520
C         -1.12080       -0.84490        0.00340
C          1.13160       -0.25250       -1.15410
C          2.03600       -0.49110        0.06310
O          1.00360       -0.10540        0.99040
C          2.47630       -1.91860        0.32570
O          2.72750       -2.72400       -0.53300
H          0.46680        2.24690       -0.16120
H         -1.03930        1.77860       -0.97780
H         -0.96000        1.80880        0.79490
H         -1.79830       -0.72710       -0.84920
H         -0.77000       -1.88070        0.02300
H         -1.68730       -0.65730        0.92100
H          0.93570       -1.14670       -1.74750
H          1.43940        0.56240       -1.81010
H          2.92080        0.16000        0.14100
H          2.53550       -2.16770        1.40930
