15
gdb 2657	7.90373	0.96804	0.92494	0.7323	70.95	-0.2476	0.0425	0.2901	1259.2654	0.122515	-271.324234	-271.315706	-271.314762	-271.358919	29.128
C         -0.53690        1.33160       -0.24690
C          0.45220        0.23110        0.17830
C          1.14140       -0.38710       -0.94980
C          1.69490       -0.88460       -1.89530
C          2.37810       -1.49290       -3.03890
C          1.75290       -2.73180       -3.50760
C          1.24970       -3.74830       -3.90120
H         -0.02000        2.13370       -0.78070
H         -1.30600        0.92670       -0.91010
H         -1.02880        1.76210        0.63040
H          1.19270        0.65090        0.87120
H         -0.08190       -0.54370        0.74310
H          2.41790       -0.77430       -3.86960
H          3.42600       -1.69590       -2.77720
H          0.80070       -4.64690       -4.24490
