17
gdb 11643	3.26101	1.95533	1.53243	1.1219	76.47	-0.2174	0.0296	0.247	884.3169	0.141306	-326.613041	-326.605575	-326.604631	-326.644379	29.341
C          0.05060        1.49820       -0.16010
N          0.01450        0.05060        0.01930
C         -1.04240       -0.55670        0.92870
C         -0.12980       -1.80730        0.98610
C          0.77430       -0.55590        1.20810
C         -0.31830       -0.02580        2.19590
C          2.20040       -0.48480        1.33580
C          3.39540       -0.41160        1.45090
H          1.03530        1.76850       -0.55410
H         -0.69550        1.76480       -0.91600
H         -0.13730        2.11490        0.73170
H         -2.10250       -0.50950        0.68010
H         -0.25030       -2.47640        1.83900
H          0.02570       -2.32290        0.03900
H         -0.33580        1.04690        2.38220
H         -0.45120       -0.58510        3.12540
H          4.45120       -0.35250        1.54930
