12
gdb 21692	3.48339	2.47614	1.44783	0.5746	61.01	-0.2395	-0.0472	0.1923	777.093	0.085568	-410.829783	-410.823144	-410.8222	-410.860591	24.665
N          0.05390        1.33740       -0.03650
C         -0.01780       -0.00700        0.01650
N         -1.18100       -0.58700        0.08400
O         -1.13380       -2.00000        0.17890
C          0.03840       -2.62250        0.18910
N          1.21230       -2.11540        0.10870
C          1.27910       -0.73220       -0.00050
N          2.34930       -0.04660       -0.11940
H          0.96490        1.72600       -0.22390
H         -0.78120        1.88350       -0.15910
H         -0.10860       -3.69680        0.27790
H          3.15920       -0.66890       -0.12310
