16
gdb 9166	7.49482	0.77481	0.71706	3.558	70.62	-0.2387	-0.0109	0.2278	1545.9544	0.126187	-383.720409	-383.710395	-383.709451	-383.75768	32.643
C          0.10850        1.48980       -0.07740
C          0.04680        0.03650       -0.03150
C         -0.01150       -1.16410        0.00930
C         -0.09470       -2.61310        0.05640
C         -1.52060       -3.16500        0.24820
O         -2.43840       -2.50710        0.65370
C         -1.65520       -4.64190       -0.11620
O         -2.91060       -5.11680        0.28660
H          0.82280        1.88220        0.65480
H          0.41780        1.84560       -1.06640
H         -0.86930        1.93130        0.14360
H          0.34250       -3.06550       -0.84460
H          0.50240       -3.00810        0.89270
H         -1.50080       -4.71600       -1.20800
H         -0.81780       -5.18930        0.35170
H         -2.98730       -6.03390        0.00770
