18
gdb 17915	3.16323	2.23259	2.13805	1.5664	70.55	-0.2403	0.0201	0.2604	764.9042	0.156844	-347.812246	-347.805751	-347.804806	-347.84232	27.042
O          0.14510        1.36930       -0.13600
C          0.01620       -0.02290        0.00990
C          0.38160       -0.63280        1.39700
C         -0.72770        0.00560        2.29690
C         -1.97510        0.02270        1.35800
C         -1.42830       -0.60800        0.03460
C         -1.09530       -2.05330        0.33570
C         -0.02500       -2.06800        1.14130
H         -0.36570        1.80890        0.55090
H          0.61320       -0.46370       -0.79130
H          1.40020       -0.46740        1.74910
H         -0.89070       -0.57370        3.20770
H         -0.44010        1.01640        2.60860
H         -2.81530       -0.54720        1.75910
H         -2.33630        1.04240        1.18120
H         -2.04540       -0.42010       -0.84440
H         -1.67470       -2.90330       -0.00320
H          0.44600       -2.93240        1.59290
