18
gdb 7085	5.69365	0.95205	0.86705	1.7829	76.38	-0.2463	-0.0124	0.2339	1343.44	0.15241	-381.160474	-381.151057	-381.150112	-381.196197	32.401
C         -1.29810        0.26700        0.56020
C         -0.19000       -0.79140        0.53250
N          0.22000       -1.05160       -0.83050
C          1.39870       -0.84850       -1.26140
C          2.61810       -0.33470       -0.54170
N          1.56540       -1.16240       -2.62950
C          2.66650       -1.08290       -3.44140
O          3.77540       -0.70770       -3.13490
H         -0.92350        1.23080        0.20090
H         -2.12910       -0.03310       -0.08410
H         -1.67540        0.40320        1.57850
H          0.62620       -0.48460        1.20160
H         -0.58860       -1.73100        0.93710
H          2.39120       -0.10120        0.49730
H          3.42240       -1.07300       -0.58060
H          3.00570        0.55660       -1.03970
H          0.70780       -1.50100       -3.04550
H          2.41140       -1.41980       -4.46570
