18
gdb 14363	4.07941	2.1822	1.89968	1.5273	71.46	-0.2471	0.0914	0.3384	773.4394	0.156638	-347.734499	-347.728391	-347.727447	-347.764559	25.242
C         -0.05990        1.51800        0.02510
C          1.46280        1.26240        0.01490
C          1.19660        0.08480        1.03260
C          0.10030       -0.04010       -0.06780
C         -0.89730       -0.92970       -0.76710
C         -0.70080       -0.39660       -2.23780
O          0.52850        0.37480       -2.31170
C          1.20610        0.18350       -1.09120
H         -0.48620        1.90000        0.95650
H         -0.47310        2.02240       -0.84810
H          2.26630        1.99740        0.07610
H          1.94500       -0.71160        1.07780
H          0.87150        0.38810        2.03000
H         -0.61930       -1.98600       -0.69540
H         -1.93410       -0.82260       -0.43820
H         -0.64910       -1.22230       -2.95680
H         -1.52190        0.26400       -2.53540
H          1.98590       -0.58440       -1.18390
