14
gdb 20463	4.90069	2.00668	1.4681	2.8012	62.13	-0.2436	-0.0132	0.2304	799.282	0.110982	-378.699594	-378.693711	-378.692767	-378.729615	22.688
C          0.01150        1.54290        0.22200
N          1.27840        1.97080       -0.44220
C          2.19990        0.80400       -0.50590
C          1.28220       -0.38220       -0.36890
N          1.37560       -1.67190       -0.53050
O          0.09620       -2.14740       -0.19700
C         -0.69580       -1.10690        0.15260
C          0.00080        0.04820        0.05920
H          0.03580        1.82640        1.28230
H         -0.84030        2.05830       -0.22970
H          1.05050        2.23370       -1.39430
H          2.78080        0.81730       -1.43110
H          2.91120        0.83630        0.32930
H         -1.70600       -1.37190        0.42310
