22
gdb 15717	3.13205	1.58668	1.21491	1.3298	77.81	-0.2425	0.0794	0.3218	1100.3637	0.200827	-350.223651	-350.214674	-350.21373	-350.25769	33.04
C          0.06720        1.64670        0.09310
C          0.08410        0.12190       -0.05310
C          0.68070       -0.57800        1.16040
O         -0.15210       -0.34050        2.29300
C          0.27670       -1.21880        3.32620
C          0.94880       -2.43370        2.63110
C          0.82090       -2.11680        1.11970
C         -0.37890       -2.82650        0.48200
H          1.08190        2.04440        0.20820
H         -0.38010        2.12290       -0.78470
H         -0.50870        1.94020        0.97460
H         -0.93560       -0.24470       -0.21040
H          0.66740       -0.16490       -0.93730
H          1.68400       -0.15040        1.35160
H          0.98710       -0.70610        3.99200
H         -0.60230       -1.48980        3.91880
H          1.99780       -2.51520        2.92860
H          0.46330       -3.37830        2.88990
H          1.73360       -2.39950        0.58470
H         -1.31410       -2.52490        0.96500
H         -0.46340       -2.60460       -0.58600
H         -0.28110       -3.91180        0.58800
