19
gdb 12022	4.49494	1.40176	1.2498	1.9741	71.7	-0.2426	0.0894	0.3319	1040.6191	0.164553	-365.025191	-365.016699	-365.015755	-365.057803	31.682
C          0.19430        1.47080       -0.06860
C         -0.01040       -0.01340        0.14450
C         -1.15960       -0.61970       -0.63290
O          1.18790       -0.82630        0.13540
C          0.46270       -0.69880        1.36380
C          1.18920       -0.02580        2.49240
C          2.47690       -0.59630        2.96320
N          2.44830        0.68310        2.23280
H          0.98540        1.87560        0.56280
H          0.44620        1.66770       -1.11650
H         -0.73200        2.01150        0.15440
H         -1.02870       -0.44600       -1.70650
H         -1.21790       -1.69800       -0.46650
H         -2.11100       -0.16650       -0.33470
H         -0.07660       -1.60300        1.65770
H          0.54080        0.45850        3.22060
H          2.75360       -0.52610        4.01120
H          2.85800       -1.47220        2.44440
H          2.70380        0.49480        1.26380
