20
gdb 16008	3.9035	1.73194	1.39229	0.2812	81.72	-0.2204	0.0312	0.2516	961.4009	0.179647	-311.880425	-311.873259	-311.872314	-311.911477	29.194
C          0.00030        1.52780        0.01290
C          1.31730        0.80440       -0.03430
C          0.01710        0.01370        0.00370
C         -0.36360       -0.72230        1.28050
C         -0.10440       -2.22850        1.13860
C         -0.91650       -2.81420       -0.02700
C         -0.83680       -1.94690       -1.25760
C         -0.39730       -0.68710       -1.23720
H         -0.28270        2.01880        0.93860
H         -0.33790        2.03950       -0.88230
H          1.87890        0.81860       -0.96210
H          1.93320        0.79750        0.85930
H          0.18640       -0.31100        2.13440
H         -1.43100       -0.55940        1.48520
H          0.96430       -2.39110        0.95100
H         -0.34760       -2.74950        2.07070
H         -0.56130       -3.82530       -0.26330
H         -1.96890       -2.93820        0.27100
H         -1.15000       -2.39020       -2.19970
H         -0.33390       -0.11840       -2.16330
