22
gdb 13499	3.04914	1.56636	1.19266	1.3809	78.22	-0.2543	0.0718	0.3261	1106.3264	0.199288	-350.200411	-350.191102	-350.190158	-350.233973	35.041
C          0.00540        1.51150       -0.09370
C          0.05650       -0.01520        0.05520
C          0.77460       -0.42610        1.34800
C         -1.34890       -0.61060       -0.00940
C         -2.18590       -0.48430       -1.31610
C         -2.70380       -1.92810       -1.07820
C         -1.52360       -2.15580       -0.09400
O         -0.38100       -2.72760       -0.71180
H          1.01320        1.94030       -0.09550
H         -0.48580        1.81040       -1.02560
H         -0.54750        1.96990        0.73560
H          0.62370       -0.42630       -0.78850
H          0.86300       -1.51370        1.41680
H          1.78400       -0.00270        1.38740
H          0.23250       -0.06810        2.23230
H         -1.93960       -0.24390        0.84040
H         -2.92810        0.31520       -1.36900
H         -1.54170       -0.42510       -2.19790
H         -3.67030       -1.94560       -0.56580
H         -2.74860       -2.60150       -1.93900
H         -1.75730       -2.67810        0.84370
H         -0.59660       -3.63520       -0.94850
