18
gdb 13428	3.61114	1.35577	1.17014	4.7296	72.53	-0.2392	0.0297	0.2689	1074.5636	0.152587	-343.967029	-343.958091	-343.957147	-344.000879	31.829
C         -0.12780        1.51020        0.62830
C          0.06220        0.05980        0.23830
C          0.41410       -0.38840       -1.14670
C          0.62250        0.55770       -2.30960
N          1.37390       -0.54590       -0.04220
C          2.57140        0.28170        0.00700
C          3.64910       -0.33730       -0.77510
N          4.49850       -0.80480       -1.40280
H          0.16470        1.67280        1.67160
H          0.43450        2.21160        0.00920
H         -1.18670        1.77530        0.54200
H         -0.56680       -0.61150        0.82250
H          0.01320       -1.35110       -1.46160
H          0.92570        1.56350       -2.01240
H          1.38330        0.16510       -2.99230
H         -0.31090        0.65230       -2.87380
H          2.45820        1.31490       -0.35220
H          2.90050        0.34650        1.05080
