13
gdb 3024	14.26387	1.04149	1.03219	1.5218	78.14	-0.2295	-0.0116	0.2179	1102.2877	0.100641	-270.117027	-270.109946	-270.109002	-270.1481	25.782
C          0.03370       -3.76420       -0.03160
C          0.02870       -2.55610       -0.01760
C          0.02230       -1.19670       -0.00230
C          0.02420        0.01530        0.01670
C          0.01340        1.44300        0.03060
C          0.49280        2.20110        1.26270
C          1.32480        2.21950        0.01810
H          0.03860       -4.82550       -0.04360
H         -0.80980        1.89800       -0.51310
H         -0.06000        3.09330        1.53360
H          0.83830        1.60720        2.10010
H          2.23870        1.63800        0.00520
H          1.35150        3.12440       -0.57800
