17
gdb 16314	3.10062	1.96406	1.39266	2.0267	69.18	-0.243	-0.0202	0.2228	924.578	0.141654	-363.842425	-363.834668	-363.833724	-363.874749	28.751
C          0.09700        1.52250       -0.21730
C         -0.11090        0.02770        0.06810
C          0.67430       -0.42040        1.26710
C          2.07900       -0.93360        1.22230
N          1.04000       -1.87400        1.62740
C          0.80990       -1.57530        3.08640
C          0.32020       -0.16400        2.70340
O         -0.32600        0.68140        3.25500
H          1.14740        1.74200       -0.43440
H         -0.49970        1.83820       -1.07780
H         -0.20280        2.12350        0.64570
H         -1.17490       -0.16990        0.24320
H          0.18590       -0.57600       -0.79680
H          2.47910       -1.11980        0.22940
H          2.81510       -0.60530        1.95390
H         -0.00330       -2.18280        3.49220
H          1.69870       -1.67890        3.71540
