18
gdb 16235	2.88195	2.27884	1.45331	1.904	73.21	-0.2392	0.0117	0.2509	895.2882	0.154223	-347.800165	-347.792806	-347.791861	-347.831681	28.693
C         -0.55910        1.34920        0.01300
C          0.10740       -0.02330       -0.02660
C          1.19080       -0.19030       -1.12740
C          2.22160       -1.09090       -0.48790
C          2.01700       -1.23720        0.82070
C          0.82050       -0.47200        1.26080
C          0.74610        0.21110        2.56420
O          0.01420       -0.99300        2.32880
H          0.17170        2.14250        0.20540
H         -1.04790        1.56990       -0.94150
H         -1.32620        1.39530        0.79270
H         -0.66690       -0.78080       -0.20160
H          0.78330       -0.60230       -2.05760
H          1.63680        0.77940       -1.39170
H          3.04270       -1.52700       -1.04610
H          2.62390       -1.80710        1.51420
H          1.57660        0.12630        3.26550
H          0.14590        1.11320        2.67210
