20
gdb 6809	2.89115	1.6884	1.41409	0.7184	80.97	-0.2514	0.0482	0.2996	1001.1946	0.175154	-311.837301	-311.828423	-311.827479	-311.870023	34.162
C         -0.10600        1.52670       -0.04700
C         -0.02440        0.00020       -0.02980
C         -1.39070       -0.62430       -0.28750
C          1.16320       -0.52980       -0.89550
C          2.03960       -0.62650        0.37800
C          0.74030       -0.55930        1.23910
C          0.74410        0.19810        2.47230
C          0.75080        0.84360        3.48810
H          0.86940        1.98980        0.13040
H         -0.47100        1.87350       -1.02030
H         -0.78880        1.89380        0.72560
H         -1.78870       -0.31030       -1.25960
H         -1.33660       -1.71830       -0.28670
H         -2.11300       -0.32230        0.47980
H          0.94830       -1.51390       -1.32300
H          1.51490        0.12620       -1.69570
H          2.65970       -1.51610        0.50410
H          2.66350        0.25710        0.52750
H          0.38370       -1.57640        1.43830
H          0.75830        1.40680        4.38800
