19
gdb 2860	6.20521	1.32116	1.25661	1.6989	68.35	-0.2561	0.0979	0.354	1047.8336	0.170254	-310.911279	-310.902804	-310.901859	-310.944373	30.096
C          0.54250        1.40450        0.20200
C         -0.28080        0.15200       -0.12430
C          0.20000       -0.51810       -1.38960
O          1.43640       -1.24310       -1.32280
C          0.23890       -1.96980       -1.63350
C         -0.19520       -3.04050       -0.66080
C          0.69520       -4.28620       -0.75420
H          1.59640        1.14490        0.33940
H          0.48180        2.14080       -0.60690
H          0.18570        1.88390        1.11830
H         -0.23130       -0.54960        0.71320
H         -1.33730        0.42140       -0.25420
H          0.12620        0.11870       -2.27620
H          0.19070       -2.28510       -2.68010
H         -0.17500       -2.64950        0.36030
H         -1.23730       -3.30750       -0.88080
H          0.66590       -4.72000       -1.75970
H          1.73520       -4.03120       -0.53030
H          0.37190       -5.05650       -0.04790
