13
gdb 21824	5.89878	1.44675	1.1618	5.5531	62.56	-0.2193	0.0063	0.2256	940.5971	0.098315	-394.819428	-394.812698	-394.811754	-394.850813	24.469
O         -0.28720        0.02090        0.00180
C         -0.09500        1.21630        0.00920
N          1.12740        1.82640        0.00220
C          2.36880        1.17780       -0.01300
C          3.60640        1.79370       -0.01830
N          4.51650        0.78650       -0.03380
N          3.96070       -0.43390       -0.03890
C          2.64910       -0.21140       -0.02600
H         -0.91170        1.96410        0.02030
H          1.13220        2.83440        0.00870
H          3.89480        2.83260       -0.01250
H          5.51850        0.86810       -0.04150
H          1.94280       -1.02290       -0.02630
