11
gdb 21398	3.75353	2.47172	1.77793	2.6405	59.84	-0.2493	-0.1302	0.119	696.9145	0.073265	-389.702476	-389.696474	-389.69553	-389.732594	22.052
N         -0.06860        1.14300       -0.44680
C         -0.01250        0.03190        0.14790
N          1.17150       -0.60070        0.60730
C          1.40770       -1.78460        0.19930
N          0.69020       -2.54300       -0.76740
N         -0.56590       -2.56900       -0.79720
C         -1.35290       -1.84150        0.14060
N         -1.18740       -0.64770        0.54610
H          0.87290        1.50590       -0.60250
H          2.32430       -2.28760        0.50550
H         -2.25060       -2.38940        0.42450
