17
gdb 13238	7.13533	0.83705	0.80391	3.1554	68.67	-0.2575	0.0302	0.2878	1370.1827	0.142363	-363.855538	-363.847265	-363.846321	-363.88984	28.386
N          0.00950       -1.18640        0.04270
C         -0.00320       -0.03120        0.06820
C          0.00530        1.42940        0.09550
C          1.41350        2.01980       -0.12550
C          1.40670        3.54250       -0.08680
C          1.24950        4.22380        1.29490
O          2.53710        4.85820        1.18200
C          2.78410        4.24450       -0.09830
H         -0.68390        1.79540       -0.67470
H         -0.39860        1.75930        1.06010
H          2.09200        1.63080        0.64260
H          1.79940        1.67270       -1.09070
H          0.71810        3.93660       -0.84020
H          0.43730        4.95500        1.38650
H          1.20450        3.53590        2.15120
H          3.64960        3.56870       -0.07140
H          2.93930        4.98850       -0.88860
