19
gdb 2392	5.0964	1.93406	1.73713	0.0893	71.73	-0.2524	0.0941	0.3465	822.4452	0.171771	-273.764207	-273.756793	-273.755849	-273.795566	28.096
C          0.07540        1.52430       -0.23650
C          0.08300        0.02020       -0.07400
C          1.39100       -0.74040       -0.01740
C          0.53090       -0.61380        1.21040
C          0.94740        0.06360        2.52630
C          0.61310       -1.26780        3.26240
C         -0.10350       -1.78260        1.97880
H          0.90870        1.98280        0.30600
H          0.16830        1.81190       -1.28980
H         -0.85130        1.96550        0.14820
H         -0.73140       -0.49190       -0.58350
H          1.45190       -1.70720       -0.50830
H          2.31140       -0.16340       -0.05420
H          1.97870        0.42010        2.59930
H          0.27900        0.88260        2.81280
H          1.50950       -1.84720        3.49640
H          0.00590       -1.18970        4.16680
H         -1.19410       -1.70560        2.04440
H          0.15140       -2.79190        1.64310
