20
gdb 1790	3.1918	2.36991	1.75129	1.1668	71.43	-0.2181	0.082	0.3001	840.242	0.181796	-291.018995	-291.010463	-291.009519	-291.05111	31.765
C         -0.22590        1.44510        0.09930
C          0.25840       -0.01140        0.12250
C          0.79420       -0.52680       -1.20930
C          2.00590        0.21230       -1.74840
C          0.66210       -1.98810       -1.50070
N         -0.10560       -1.01190       -2.26690
C         -1.55010       -1.00460       -2.10370
H          0.58230        2.13820       -0.15190
H         -1.02630        1.58950       -0.63310
H         -0.61490        1.73660        1.07990
H          1.05950       -0.11270        0.86640
H         -0.55200       -0.65760        0.47340
H          2.82960        0.19410       -1.02510
H          2.34730       -0.24940       -2.67760
H          1.77200        1.25960       -1.96590
H          1.43820       -2.52360       -2.04390
H          0.12670       -2.59350       -0.76830
H         -1.90720       -1.25260       -1.09190
H         -1.94470       -0.01980       -2.37470
H         -1.98030       -1.73800       -2.79410
