16
gdb 18801	3.24959	3.07428	2.37268	1.5593	68.15	-0.2273	0.0002	0.2275	662.2153	0.135332	-342.72751	-342.722277	-342.721332	-342.756387	22.899
N         -0.03010        1.47950        0.04080
C          1.47380        1.45340       -0.00250
C          1.98120        1.25850        1.39610
C          1.52420        0.14590        1.99380
C          0.80470       -0.79260        1.07020
N          1.74040       -1.16310       -0.04850
C          1.32190        0.02640       -0.76500
C         -0.03740        0.03200       -0.04860
H         -0.40310        1.87220        0.90500
H          1.92050        2.28540       -0.54920
H          2.60650        1.99970        1.88270
H          1.70520       -0.10660        3.03330
H          0.32410       -1.64510        1.55280
H          2.71980       -1.18820        0.23500
H          1.48340        0.05840       -1.84310
H         -0.95030       -0.45540       -0.39270
