15
gdb 16289	3.41133	1.78499	1.45489	2.6193	67.56	-0.2429	0.0072	0.2501	879.0127	0.120845	-358.806062	-358.798915	-358.797971	-358.837327	27.207
N          0.11550        1.46060       -0.02090
C          0.05610        0.02670        0.04910
C          0.22700       -0.60710        1.47700
C         -1.13300       -1.28670        1.32250
N         -2.11430       -0.20710        1.11120
C         -1.32330       -0.70750       -0.04750
C         -1.94550       -1.25840       -1.20150
N         -2.42340       -1.68900       -2.16520
H         -0.00130        1.78500       -0.97590
H         -0.64050        1.85630        0.53160
H          0.76290       -0.40700       -0.66150
H          1.06490       -1.30420        1.52660
H          0.29130        0.11020        2.29750
H         -1.44430       -2.25900        1.68190
H         -3.04300       -0.62470        1.05490
