18
gdb 17569	3.40786	2.346	1.89967	1.8545	70.09	-0.2503	0.0865	0.3368	782.0011	0.155307	-347.762659	-347.756259	-347.755315	-347.792653	26.82
C         -0.03980        1.52390        0.04170
C          0.03490        0.01470        0.04740
C          0.92240       -0.81060       -0.96290
C          0.71630       -1.93800        0.10770
C          0.76860       -0.79630        1.15730
C         -0.80240       -2.16500       -0.05950
O         -1.63270       -1.64720        0.99440
C         -1.28480       -0.78740       -0.10390
H          0.95790        1.97230        0.08840
H         -0.52880        1.89470       -0.86700
H         -0.61310        1.89230        0.89970
H          0.52400       -0.98260       -1.96840
H          1.95300       -0.44880       -1.02150
H          1.36300       -2.81270        0.16520
H          1.78760       -0.43260        1.30530
H          0.26090       -0.94460        2.10880
H         -1.20980       -2.99410       -0.62810
H         -2.10870       -0.42340       -0.71000
