17
gdb 10897	2.94237	2.02607	1.5341	4.1132	68.27	-0.2413	-0.008	0.2333	892.3261	0.141065	-363.855516	-363.847526	-363.846582	-363.887554	29.659
C         -0.05520        1.64340       -0.01110
C          0.07090        0.12660        0.05910
C          1.13530       -0.60640       -0.77900
O          1.42210       -0.65420       -1.93430
N          1.67670       -1.37100        0.33280
C          2.17310       -0.32450        1.28700
C          0.72620       -0.58220        1.25740
C         -0.02570       -1.26360        2.36050
H          0.88520        2.14320        0.23790
H         -0.33650        1.94840       -1.02350
H         -0.82440        2.00650        0.67780
H         -0.89780       -0.34040       -0.15940
H          2.75230       -0.75710        2.09680
H          2.59500        0.58970        0.87720
H         -0.44770       -0.52620        3.05290
H         -0.85080       -1.86340        1.96270
H          0.63250       -1.92450        2.93110
