17
gdb 9830	3.48443	1.5856	1.24723	2.1361	65.67	-0.2445	0.0226	0.2671	1011.9842	0.140626	-401.017735	-401.008831	-401.007887	-401.051446	31.316
C         -0.34800        1.42260        0.44640
N         -0.26790       -0.01290        0.61630
C          0.91230       -0.67680        0.69360
O          2.01470       -0.15660        0.64580
C          0.76360       -2.18190        0.86740
C          1.80510       -3.01230        0.16130
C          0.10010       -2.66480        2.09260
O         -0.58970       -2.67120        0.83910
H          0.67110        1.81180        0.46430
H         -0.81300        1.68710       -0.51000
H         -0.92430        1.88710        1.25410
H         -1.09950       -0.58330        0.58870
H          2.79990       -2.66150        0.44340
H          1.69830       -4.06840        0.41950
H          1.70710       -2.90710       -0.92370
H          0.36170       -3.64700        2.48300
H         -0.27090       -1.95090        2.82580
