16
gdb 9631	3.74889	1.24598	1.12079	3.8621	63.19	-0.2459	-0.022	0.2239	1072.4289	0.127785	-420.860889	-420.852268	-420.851324	-420.894108	31.118
O         -0.15720        1.45950       -0.30250
C          0.02070        0.09370        0.07210
C         -1.35920       -0.52050        0.03650
O         -2.26370        0.16390        0.85000
C         -1.88380       -1.17180       -1.20110
C         -1.57700       -2.02410        0.03680
C         -0.45140       -2.98410        0.00100
O         -0.40400       -4.00490        0.64220
H          0.60360        1.96180        0.00180
H          0.70510       -0.42040       -0.61590
H          0.42700        0.01610        1.09010
H         -2.12750        1.09940        0.64730
H         -2.93070       -1.03060       -1.43960
H         -1.21970       -1.28370       -2.05260
H         -2.42200       -2.34430        0.63620
H          0.37640       -2.71000       -0.69480
