15
gdb 16298	3.40378	1.80333	1.45693	1.758	68.91	-0.2391	0.0132	0.2524	881.4654	0.117776	-362.575224	-362.567726	-362.566782	-362.606731	28.618
O          0.09050        1.46700        0.20480
C         -0.00990        0.07290        0.05790
C          0.18910       -0.71420        1.36750
N         -1.14650       -1.40090        1.24620
C         -2.13420       -0.31810        1.26010
C         -1.41750       -0.55290       -0.01860
C         -2.02810       -1.04730       -1.20510
C         -2.51290       -1.42650       -2.23960
H         -0.08170        1.87830       -0.64910
H          0.62570       -0.29850       -0.75450
H          0.99730       -1.44540        1.33070
H          0.28610       -0.09740        2.26590
H         -3.15750       -0.67480        1.31190
H         -1.92550        0.59210        1.81860
H         -2.94950       -1.77450       -3.14290
