13
gdb 20441	5.09814	2.19183	1.56837	5.189	58.97	-0.233	0.0061	0.2391	747.8579	0.099034	-394.764092	-394.758291	-394.757346	-394.794258	21.38
C          0.04240        1.40830       -0.10950
C          1.54250        1.79660        0.06150
N          2.02010        0.57300        0.67260
N          3.19420        0.14540        1.19920
N          3.01770       -1.12000        1.46290
C          1.75660       -1.52620        1.10420
C          1.12390       -0.42400        0.58800
O         -0.03550       -0.03960        0.01900
H         -0.57210        1.85190        0.67990
H         -0.36540        1.68060       -1.08340
H          2.04730        1.98310       -0.89170
H          1.67560        2.66280        0.71230
H          1.41690       -2.53720        1.24220
