13
gdb 20248	4.18251	3.17432	2.56265	3.7553	59.71	-0.2116	-0.0569	0.1547	578.4119	0.096226	-361.323465	-361.318583	-361.317639	-361.351977	21.089
O         -0.17350        1.22110        0.18560
C          1.33120        1.19570       -0.00600
C          2.19130        0.06310        0.69550
C          1.45760       -1.30140        0.50730
N          0.03420       -1.07000        0.47420
C         -0.01710       -0.07700       -0.32910
C          1.23270        0.25250       -1.20350
C          2.26790       -0.69470       -0.63250
H          1.72710        2.20860       -0.03450
H          2.94380        0.21270        1.45630
H          1.83070       -2.16290        1.04830
H          1.11680        0.58450       -2.22890
H          3.10240       -1.16980       -1.12590
