13
gdb 5189	7.68041	1.19966	1.05669	2.5689	62.66	-0.2304	0.0021	0.2325	1037.8077	0.096196	-398.609762	-398.602988	-398.602044	-398.641435	24.414
N          0.00220        1.28730        0.28190
C         -0.07830        0.08480       -0.07900
O         -1.07170       -0.69690        0.42450
C         -0.98450       -2.04480        0.22510
C          0.11370       -2.85220        0.25930
O         -0.26900       -4.13950        0.03100
C         -1.61560       -4.13830       -0.13400
C         -2.11700       -2.88130       -0.02820
H          0.76510        1.74830       -0.20970
H          0.55820       -0.45070       -0.79380
H          1.16030       -2.68530        0.44440
H         -2.06490       -5.09960       -0.32010
H         -3.14450       -2.56850       -0.11540
