17
gdb 17020	3.9469	1.62023	1.33857	4.1341	73.37	-0.304	0.0261	0.33	947.5693	0.143586	-326.693383	-326.686285	-326.685341	-326.724548	27.448
C         -0.11990        1.61560        0.00940
C          0.03260        0.10350        0.01970
C          1.18220       -0.61760       -0.76270
C          2.17140       -0.15860        0.34770
C          0.89450       -0.63410        1.09990
C          0.91820       -1.87280        0.13900
C         -0.29270       -2.65500       -0.05490
N         -1.23920       -3.30210       -0.20690
H          0.81680        2.15760        0.15920
H         -0.54350        1.94470       -0.94550
H         -0.81320        1.92930        0.79720
H         -0.94680       -0.35940       -0.13570
H          1.34830       -0.63680       -1.84020
H          3.07030       -0.76610        0.48130
H          2.41150        0.90210        0.39420
H          0.72780       -0.67220        2.17680
H          1.77460       -2.54000        0.26540
