21
gdb 13820	4.07649	1.17652	1.07391	1.602	75.92	-0.2171	0.0717	0.2888	1215.0337	0.187196	-366.231761	-366.2223	-366.221356	-366.26588	34.876
C         -0.22280        1.60940        0.28940
C          0.21620        0.21250       -0.14250
N          0.80800       -0.49790        0.99430
C         -0.08110       -1.28040        1.84580
C          0.91630       -1.95470        0.96260
C          0.49830       -2.81960       -0.22830
C          0.89930       -4.27970        0.00020
O         -0.88410       -2.71670       -0.56090
H          0.61750        2.16360        0.71750
H         -0.61540        2.17150       -0.56370
H         -1.01110        1.55440        1.04780
H         -0.62760       -0.33170       -0.58810
H          0.99290        0.29370       -0.91330
H          0.08570       -1.20680        2.91770
H         -1.12700       -1.34540        1.55000
H          1.83710       -2.31010        1.42540
H          1.01370       -2.45090       -1.12440
H          1.98290       -4.38220        0.11420
H          0.43000       -4.67270        0.91070
H          0.57820       -4.89190       -0.84640
H         -1.38440       -3.12040        0.15740
