17
gdb 1899	3.55371	2.90741	2.1987	1.169	64.45	-0.2568	0.0813	0.3381	687.8277	0.148672	-309.671865	-309.665127	-309.664182	-309.701988	26.541
C         -0.14800        1.57410        0.02790
C          0.02900        0.06400        0.04270
C          1.18590       -0.65680       -0.73000
C          2.18170       -0.16040        0.35780
C          0.90250       -0.64860        1.11160
O          0.62310       -0.58870        2.46500
C          0.91590       -1.89550        0.17140
H          0.78940        2.12510        0.13590
H         -0.61440        1.89470       -0.91000
H         -0.80770        1.88310        0.84570
H         -0.94290       -0.42380       -0.09870
H          1.34960       -0.66410       -1.80520
H          3.08360       -0.76520        0.49180
H          2.41620        0.90390        0.38940
H          1.30050       -1.08180        2.94010
H         -0.03700       -2.41210        0.02880
H          1.74700       -2.59590        0.29390
