18
gdb 12517	3.39747	1.82113	1.2525	2.1846	70.7	-0.24	0.0165	0.2565	980.3827	0.154488	-384.93553	-384.927771	-384.926827	-384.967876	28.811
C         -0.32560        1.42700        0.06410
C          0.10860       -0.01880        0.03520
C          0.02550       -0.73790       -1.08670
C          0.30980       -2.19680       -1.33480
O          1.28410       -2.82970       -0.52870
C          1.04630       -2.79260        0.84690
O          1.46110       -1.59840        1.44410
C          0.54240       -0.52830        1.39510
H          0.51730        2.08890        0.30040
H         -0.74950        1.74060       -0.89250
H         -1.08220        1.59770        0.84150
H         -0.36720       -0.23480       -1.97020
H         -0.64460       -2.75390       -1.26910
H          0.66680       -2.32130       -2.36260
H         -0.02130       -2.98560        1.06530
H          1.66550       -3.58080        1.28250
H          1.02590        0.28580        1.94620
H         -0.37010       -0.78850        1.96540
