20
gdb 6618	3.41411	1.61503	1.44105	1.536	70.58	-0.2501	0.0745	0.3246	980.1591	0.17562	-386.132006	-386.123179	-386.122235	-386.164899	33.315
C         -0.11730        1.48530       -0.04590
C          0.02430       -0.04290        0.03860
C          0.70370       -0.47050        1.33780
O         -1.26640       -0.65050        0.02940
C          0.81050       -0.55060       -1.17700
C          0.89170       -2.07190       -1.42840
C          0.24940       -1.73860       -2.78660
O          0.03500       -0.36150       -2.39470
H          0.85420        1.98330        0.04130
H         -0.56130        1.77450       -1.00340
H         -0.76530        1.84090        0.75970
H          0.11940       -0.12200        2.19400
H          0.77640       -1.55970        1.39980
H          1.71000       -0.04690        1.41140
H         -1.61270       -0.49660       -0.85980
H          1.77710       -0.03280       -1.24920
H          1.88820       -2.51370       -1.44950
H          0.23950       -2.64210       -0.76610
H          0.92760       -1.80640       -3.64660
H         -0.69070       -2.24410       -3.03260
