14
gdb 13224	9.11724	0.80372	0.78104	1.0106	80.38	-0.2475	-0.022	0.2255	1394.4086	0.105986	-345.322957	-345.315098	-345.314154	-345.35586	27.803
C         -0.05340       -3.83700       -0.13560
C         -0.03100       -2.63050       -0.08730
C         -0.00670       -1.27170       -0.03400
C          0.01640       -0.06170        0.01510
C          0.05030        1.37830        0.08050
C         -0.10100        2.07510        1.46550
O          1.07790        2.86660        1.23810
C          1.42950        2.10240        0.07180
H         -0.07250       -4.89770       -0.17740
H         -0.63060        1.81030       -0.65870
H         -0.99610        2.69020        1.60320
H          0.01290        1.39170        2.31570
H          2.27860        1.43210        0.25250
H          1.63800        2.73720       -0.79540
