20
gdb 18476	3.2266	1.57764	1.38146	1.4289	74.76	-0.2483	0.0728	0.3211	1012.6038	0.177186	-348.974206	-348.96593	-348.964986	-349.006818	31.652
C         -0.27560        1.44290        0.17740
C          0.21940        0.02580       -0.13400
C          0.83280       -0.64660        1.08110
C          0.07630       -1.27400        2.21840
C         -1.16300       -2.02650        1.72010
C         -0.21590       -2.94610        0.87100
O         -0.39430       -3.04070       -0.52860
C          0.98990       -2.12810        1.31260
H          0.53720        2.07620        0.55140
H         -0.68840        1.92520       -0.71440
H         -1.05770        1.42850        0.94450
H         -0.59270       -0.58240       -0.53740
H          0.97710        0.06520       -0.92690
H          1.71120       -0.11440        1.44800
H          0.24640       -0.99050        3.24980
H         -1.69010       -2.57690        2.50290
H         -1.89040       -1.43740        1.15340
H         -0.17410       -3.94810        1.31940
H         -1.15300       -3.60900       -0.69640
H          1.95960       -2.55850        1.53490
