14
gdb 4859	5.71981	1.33964	1.15699	2.4017	59.91	-0.1971	0.053	0.2502	997.5556	0.107776	-415.882058	-415.874432	-415.873488	-415.914574	27.267
C          0.11260        1.13600       -0.42330
O         -0.44500        0.27940        0.57740
C          0.45510       -0.45940        1.26150
C          1.02800       -1.67630        1.04800
N          1.86950       -2.00670        2.10640
C          1.78620       -0.99890        2.92730
O          2.41500       -0.86410        4.10900
N          0.96140       -0.01360        2.48790
H          0.67390        0.55640       -1.16450
H         -0.72820        1.63740       -0.90660
H          0.77820        1.88680        0.02130
H          0.88850       -2.33700        0.20760
H          2.93060       -1.67200        4.22840
H          0.69320        0.82090        2.98120
