12
gdb 20468	6.66548	1.45905	1.29928	3.9123	57.79	-0.2761	-0.052	0.2241	878.3394	0.083756	-414.605351	-414.599006	-414.598062	-414.636542	22.531
C          0.30610        1.52880        0.13220
O          1.13170        0.43560       -0.25250
C         -0.24030        0.16220        0.04330
C         -0.51660       -0.64180        1.24370
C         -1.38380       -1.66660        1.47540
N         -1.23170       -2.02720        2.79220
N         -0.36130       -1.31850        3.35250
O          0.13910       -0.38650        2.37350
H          0.51500        1.94930        1.11320
H          0.06600        2.24120       -0.65540
H         -0.84980       -0.10680       -0.81730
H         -2.08110       -2.15960        0.82050
