18
gdb 13764	3.12651	1.44452	1.18911	1.7222	74.14	-0.2597	0.0204	0.2802	1081.1694	0.150697	-347.75566	-347.746628	-347.745684	-347.789323	32.999
C          0.00070        1.37930       -0.31290
C          0.07560       -0.04250        0.26170
C          0.68520       -0.06240        1.67070
C         -1.30300       -0.66440        0.28400
O         -1.87260       -1.05840       -0.96190
C         -1.56110       -2.09270       -0.01070
C         -0.51050       -3.01630       -0.34720
C          0.34700       -3.81940       -0.60270
H          0.99860        1.82390       -0.38010
H         -0.43960        1.37180       -1.31400
H         -0.61160        2.03000        0.32280
H          0.69790       -0.65490       -0.40020
H          0.06850        0.50660        2.37660
H          0.77770       -1.08470        2.05010
H          1.68220        0.38850        1.66620
H         -2.01510       -0.17920        0.95810
H         -2.44060       -2.55170        0.44070
H          1.10590       -4.52430       -0.83800
