16
gdb 14289	3.4637	1.85159	1.80842	3.5597	63.56	-0.2357	-0.0075	0.2282	809.8996	0.130993	-383.754563	-383.747571	-383.746627	-383.785764	27.126
O         -0.00080        1.32540       -0.20160
C         -0.03530       -0.06340       -0.03490
C         -0.49600       -0.66010        1.27500
C         -1.10430        0.29260        2.28230
C         -2.27510        0.98400        1.56030
O         -2.87340        1.94240        1.96920
C         -2.56730        0.23760        0.24910
C         -1.39360       -0.69530        0.03080
H          0.75690        1.67270        0.28100
H          0.73440       -0.60880       -0.58010
H         -0.00740       -1.56010        1.63040
H         -1.50700       -0.25200        3.14510
H         -0.42070        1.05050        2.67730
H         -3.50050       -0.32540        0.37240
H         -2.72550        0.96250       -0.55330
H         -1.55420       -1.62070       -0.50920
