14
gdb 21928	3.50473	1.76536	1.18292	0.9966	59.32	-0.2142	0.0338	0.248	941.0905	0.108237	-415.870226	-415.862484	-415.86154	-415.903267	27.646
O         -0.02600        1.48020        0.00570
C          0.04760        0.06120        0.01680
C         -1.34540       -0.47610        0.00550
C         -2.53150        0.22580        0.05860
N         -3.53190       -0.68470        0.02340
N         -3.08030       -1.96300       -0.05000
C         -1.76400       -1.82510       -0.05990
O         -0.92970       -2.88720       -0.12640
H          0.87040        1.82400        0.04800
H          0.60310       -0.31760       -0.85690
H          0.58600       -0.30100        0.90850
H         -2.71320        1.28630        0.11390
H         -4.52210       -0.51960        0.03760
H         -1.48150       -3.67820       -0.16660
