17
gdb 11757	5.19462	1.28618	1.2116	2.2965	64.23	-0.249	0.0642	0.3132	1016.0528	0.14242	-400.945989	-400.938067	-400.937123	-400.978473	29.574
O          0.10220        1.34240       -0.27460
C          0.05370        0.01660        0.23300
C         -1.35070       -0.50310        0.29540
C         -2.42850       -0.16710        1.33630
C         -2.97960       -1.62830        1.16090
O         -4.27950       -1.79090        0.63420
C         -1.89290       -1.89690        0.11850
N         -1.97200       -0.91960       -0.96250
H         -0.27950        1.30740       -1.15910
H          0.66260       -0.66990       -0.37380
H          0.49110        0.06080        1.23610
H         -2.03580        0.01600        2.33990
H         -3.11350        0.64210        1.06410
H         -2.83610       -2.22480        2.07140
H         -4.91290       -1.48460        1.29120
H         -1.39100       -2.83930       -0.06840
H         -2.92390       -0.57380       -1.07270
