17
gdb 13825	4.40386	1.45872	1.12318	4.3721	74.93	-0.1996	-0.0225	0.1771	1044.1559	0.142902	-363.898487	-363.890498	-363.889554	-363.931095	29.007
C         -0.08950        1.51160        0.03500
C         -0.07870       -0.01140        0.05440
O         -0.14740       -0.62530        1.11000
C          0.00630       -0.68590       -1.23660
C          0.06270       -2.03130       -1.37770
N          0.21740       -2.43720       -2.67740
C         -0.05950       -1.28790       -3.55900
C          0.13900       -0.06570       -2.62260
H          0.81320        1.90180       -0.44990
H         -0.94530        1.88750       -0.53800
H         -0.14530        1.88550        1.05780
H          0.03840       -2.75570       -0.57420
H         -0.10970       -3.35090       -2.95150
H          0.61170       -1.28470       -4.42140
H         -1.09310       -1.33100       -3.93020
H         -0.59070        0.72190       -2.83210
H          1.13400        0.37670       -2.76840
