18
gdb 17948	3.1278	2.21199	2.04853	1.3291	70.02	-0.236	0.076	0.3119	783.9764	0.156043	-347.782091	-347.775503	-347.774559	-347.812299	27.194
O         -0.11110        1.40790       -0.05880
C          0.02430        0.03500       -0.02590
C         -1.05230       -1.01520        0.05440
C         -0.45240       -1.77830       -1.12650
C          0.82390       -0.87670       -1.01380
C          1.90490       -1.54790       -0.15570
C          1.18960       -1.81600        1.20090
C         -0.00580       -0.86320        1.17570
H          0.62800        1.79890        0.42020
H         -2.10570       -0.89580        0.27980
H         -0.30110       -2.85860       -1.01830
H         -1.00660       -1.58950       -2.04940
H          1.17480       -0.42720       -1.94270
H          2.30000       -2.46140       -0.61150
H          2.74930       -0.86210       -0.01410
H          0.87410       -2.86120        1.29010
H          1.84460       -1.61200        2.05370
H         -0.40690       -0.46060        2.09970
