15
gdb 11237	4.59152	1.45595	1.23498	0.9587	68.42	-0.2495	0.0179	0.2674	984.8598	0.118053	-362.650759	-362.642927	-362.641983	-362.683498	28.147
C         -0.17530        1.40000        0.15780
C          0.00840       -0.06630       -0.03160
N         -0.17480       -0.72160       -1.10290
C          0.11900       -2.12330       -0.80360
C          0.52700       -2.13390        0.70940
O          0.41870       -0.73580        1.08730
C         -0.31800       -2.95970        1.55780
C         -1.01570       -3.66960        2.23070
H          0.76230        1.85990        0.48510
H         -0.49950        1.85230       -0.77860
H         -0.92000        1.58900        0.93720
H         -0.76000       -2.74730       -0.98800
H          0.92920       -2.48950       -1.44180
H          1.57540       -2.42030        0.84330
H         -1.63060       -4.29220        2.83280
