14
gdb 5790	6.24431	1.42218	1.25356	0.9236	62.89	-0.2333	0.0055	0.2387	933.4275	0.109708	-378.719602	-378.713176	-378.712232	-378.7508	23.61
C          0.99760        1.17090        0.07420
N          0.44340        0.13000       -0.80120
C         -0.33580        0.56640        0.36760
C         -0.52250       -0.44040        1.42880
C         -0.07460       -1.71880        1.48900
O         -0.48830       -2.25700        2.67790
C         -1.17710       -1.25950        3.27280
N         -1.23740       -0.16200        2.59360
H          1.85830        0.86220        0.65990
H          1.02390        2.19870       -0.27820
H          0.06490        0.54300       -1.64870
H         -1.19730        1.21090        0.20910
H          0.49450       -2.35120        0.83230
H         -1.60480       -1.47360        4.23980
