16
gdb 17998	3.58827	1.89219	1.6905	3.1913	64.01	-0.2457	-0.0187	0.227	820.7101	0.13045	-383.70956	-383.702505	-383.701561	-383.74157	25.744
O         -0.84900        1.41460       -0.36560
C          0.08610        1.25820        0.37750
C          1.44000        1.89240        0.19290
C          1.58840        2.95940       -0.92740
C          1.92070        4.03900        0.13740
C          0.69170        4.68700        0.80550
O          0.61370        3.63070        1.79980
C          1.77950        2.98280        1.26630
H         -0.00230        0.61920        1.28470
H          2.19640        1.09890        0.16710
H          2.41290        2.75510       -1.61290
H          0.67810        3.12710       -1.50700
H          2.80160        4.66060       -0.01340
H          0.87780        5.65700        1.28160
H         -0.21680        4.74970        0.19530
H          2.51920        2.74480        2.03460
