15
gdb 15503	2.9712	2.053	1.45022	2.2022	62.4	-0.2624	-0.0367	0.2257	863.2148	0.119687	-399.830242	-399.822972	-399.822028	-399.862504	25.949
N          0.09260        1.34710       -0.07710
C          0.00550        0.08980       -0.15190
O          1.04900       -0.77680       -0.23640
C          0.58780       -2.14310       -0.19210
C         -0.90180       -2.09780       -0.56410
C         -1.30390       -0.68750       -0.12760
C         -1.88660       -0.61510        1.28330
O         -2.10310       -1.57510        1.97490
H          1.06960        1.64480       -0.07620
H          1.20050       -2.72070       -0.88690
H          0.74110       -2.52790        0.82200
H         -1.03640       -2.21930       -1.64140
H         -1.47640       -2.86430       -0.04220
H         -2.01770       -0.19070       -0.79180
H         -2.08800        0.41940        1.62860
