10
gdb 20308	6.46363	1.61526	1.29231	5.0748	64.57	-0.2632	-0.1085	0.1547	836.2555	0.059205	-372.405388	-372.399023	-372.398079	-372.436105	22.652
C          0.02160       -1.19400       -0.00420
C          0.02420        0.00880        0.00240
C         -0.01820        1.42760        0.01080
C         -1.22570        2.13680        0.03070
N         -1.22640        3.45790        0.03810
N         -0.05600        4.09450        0.02610
N          1.08320        3.43440        0.00740
N          1.13440        2.11090       -0.00070
H          0.03480       -2.25660       -0.01020
H         -2.18930        1.63690        0.04070
