19
gdb 15380	3.62393	1.0804	0.90247	4.2349	76.68	-0.2843	0.0321	0.3164	1313.4917	0.165255	-327.940972	-327.93213	-327.931185	-327.975011	31.781
C          0.00750        1.53700       -0.07770
C          0.18920        0.01720       -0.05840
C          0.48160       -0.52800        1.34630
C          0.64970       -2.03190        1.36460
C          1.97450       -2.66680        1.06640
C          1.41620       -2.73350        2.48230
C          2.03680       -1.96800        3.52630
N          2.53300       -1.35080        4.37030
H          0.90790        2.04730        0.28110
H         -0.20140        1.89990       -1.08860
H         -0.82410        1.84470        0.56580
H         -0.71350       -0.46660       -0.45430
H          1.00670       -0.26770       -0.73280
H          1.38600       -0.05340        1.74600
H         -0.33330       -0.24590        2.02580
H         -0.22360       -2.58740        1.03180
H          2.01170       -3.59710        0.51160
H          2.82390       -2.01090        0.91050
H          1.03160       -3.69180        2.81460
