19
gdb 14778	7.31079	0.63571	0.61634	3.3912	70.92	-0.2515	0.0323	0.2838	1797.0223	0.164146	-402.213643	-402.203812	-402.202868	-402.250212	32.697
C          0.02300        1.33020       -0.19820
O         -0.03190       -0.07580       -0.20290
C         -1.31290       -0.57630        0.10580
C         -1.26100       -2.09760        0.05160
C         -2.60310       -2.73580        0.42330
N         -2.56330       -4.18850        0.37620
C         -3.29340       -4.92610       -0.50320
O         -4.07510       -4.48050       -1.31620
H          1.04720        1.61890       -0.44660
H         -0.66040        1.76920       -0.94250
H         -0.23420        1.74700        0.78890
H         -1.62720       -0.23580        1.10900
H         -2.06110       -0.19230       -0.60970
H         -0.97060       -2.41330       -0.95590
H         -0.47490       -2.44300        0.73470
H         -2.91280       -2.40960        1.42520
H         -3.38550       -2.43590       -0.27820
H         -1.92860       -4.67610        0.98860
H         -3.09380       -6.01040       -0.38890
