14
gdb 15208	2.52606	1.98273	1.53	3.0774	68.33	-0.2467	0.0074	0.2541	874.6062	0.106481	-341.542373	-341.534294	-341.53335	-341.574756	29.415
N          0.06450        1.43760        0.11740
C         -0.00680        0.02250       -0.01470
C         -1.35040       -0.66260        0.00170
C         -2.55330        0.11240        0.05210
C         -3.55450        0.77640        0.10130
C         -0.50000       -0.69600       -1.28680
C         -0.88110        0.09150       -2.41830
N         -1.15700        0.74720       -3.33110
H          0.77000        1.83610       -0.49310
H         -0.82530        1.87540       -0.09820
H          0.79080       -0.50830        0.49830
H         -1.39630       -1.61500        0.52100
H         -4.44610        1.35300        0.13460
H         -0.05060       -1.65330       -1.52860
