13
gdb 12181	3.33317	1.63585	1.22735	3.3966	56.64	-0.2573	-0.0443	0.213	930.6262	0.093908	-435.750324	-435.742512	-435.741568	-435.783072	27.091
O          0.21790        1.37790        0.27110
C          0.07210        0.01890        0.03860
C         -1.38140       -0.63270       -0.03380
N         -1.01890       -1.11660       -1.35730
C          0.23980       -0.56140       -1.40230
O          1.09860       -0.53220       -2.23820
C         -1.67500       -1.68860        0.99790
O         -1.60080       -2.87240        0.78650
H         -0.08720        1.86570       -0.50210
H          0.70920       -0.50700        0.75530
H         -2.16680        0.13430       -0.02200
H         -1.42050       -1.87190       -1.89290
H         -1.96030       -1.28630        1.99530
