18
gdb 14054	4.52252	1.53706	1.43944	1.7878	66.63	-0.2465	0.0615	0.308	922.1207	0.155484	-384.917015	-384.909736	-384.908792	-384.949637	26.673
C         -0.05850        1.50440       -0.08890
O          1.35160        1.65200        0.17270
C          1.49000        0.24360        0.44410
C          0.04150       -0.03830       -0.00570
C         -0.94130       -0.79360        0.91070
C         -1.84340       -1.57990       -0.07660
O         -1.50800       -1.11930       -1.38170
C         -0.13610       -0.77530       -1.33720
H         -0.66890        1.96590        0.69980
H         -0.34920        1.92600       -1.05890
H          2.28340       -0.21810       -0.15860
H          1.69150        0.04670        1.50610
H         -0.40950       -1.47210        1.58470
H         -1.51550       -0.10260        1.53320
H         -1.65630       -2.66160        0.00470
H         -2.91240       -1.40750        0.07220
H          0.09590       -0.16780       -2.21600
H          0.50260       -1.67720       -1.35870
