19
gdb 5970	3.16647	1.2742	1.14965	4.705	72.6	-0.2721	0.0289	0.301	1154.1191	0.162156	-365.07532	-365.065413	-365.064469	-365.110757	34.929
C          0.05390        1.56520       -0.12350
C         -0.00990        0.05360        0.02230
O          0.63410       -0.50480       -1.11590
C          0.70330       -1.92550       -1.20880
C          1.53130       -2.55010       -0.06820
C         -0.69030       -2.57650       -1.31460
C          1.42130       -2.16110       -2.48350
N          1.97730       -2.38890       -3.46970
H          1.09290        1.90190       -0.17250
H         -0.45280        1.88360       -1.03850
H         -0.43040        2.04770        0.73070
H          0.49100       -0.25940        0.94940
H         -1.05640       -0.27760        0.08280
H          0.99710       -2.47060        0.88190
H          1.71090       -3.60950       -0.26770
H          2.49430       -2.04200        0.01930
H         -1.27560       -2.08700       -2.09630
H         -0.59460       -3.63700       -1.56050
H         -1.22430       -2.49620       -0.36450
