19
gdb 17683	4.07752	1.36728	1.33068	2.2225	72.4	-0.2281	0.0855	0.3137	1030.8321	0.163661	-365.007296	-364.998653	-364.997709	-365.040435	31.845
C          0.07900        1.44370       -0.46170
N          0.18300        0.02540       -0.16060
C          1.50550       -0.54680        0.03920
C          0.54840       -0.44200        1.18640
C          0.83080        0.52480        2.31940
C         -0.21150       -1.68550        1.56150
C         -0.04970       -2.39760        2.83600
O         -1.19540       -1.57710        2.59570
H          0.88290        2.06690       -0.04030
H          0.09990        1.56790       -1.54940
H         -0.88000        1.82430       -0.09640
H          1.69860       -1.50000       -0.44920
H          2.36070        0.12950        0.05900
H          1.31330        1.43650        1.96440
H         -0.09650        0.79180        2.83350
H          1.50160        0.07120        3.05590
H         -0.54080       -2.25670        0.69340
H         -0.24130       -3.46920        2.87720
H          0.64040       -2.02520        3.59050
