13
gdb 20517	4.98572	1.5362	1.18299	3.1775	60.79	-0.2626	-0.0567	0.2059	937.8894	0.095177	-398.614432	-398.607354	-398.60641	-398.646376	24.832
C         -0.00770        1.50370        0.00830
C          0.03360       -0.01320        0.00210
O          1.07800       -0.63150       -0.00890
C         -1.25650       -0.72970        0.00960
C         -2.54110       -0.26620        0.02170
O         -3.40860       -1.27580        0.02480
N         -2.69870       -2.48830        0.01440
C         -1.44000       -2.14720        0.00540
H          1.01110        1.89140        0.00110
H         -0.54830        1.87700       -0.86850
H         -0.53320        1.87010        0.89720
H         -2.97120        0.72380        0.02900
H         -0.67330       -2.90790       -0.00370
