21
gdb 3974	3.89225	1.03771	0.96495	0.677	78.35	-0.2384	0.0166	0.255	1314.0318	0.185482	-366.240676	-366.230361	-366.229416	-366.276382	36.801
C         -1.42940       -0.86800       -0.07710
C          0.07440       -0.67940        0.15990
C          0.60790       -1.70930        1.16370
C          0.83990       -0.74690       -1.18310
C          2.29460       -0.37000       -1.08450
C          2.68380        1.04530       -0.74560
N          3.14250       -1.30180       -1.30790
O          4.46590       -0.83830       -1.18200
H         -1.82780       -0.10670       -0.75630
H         -1.63430       -1.84990       -0.52000
H         -1.98780       -0.80560        0.86270
H          0.22390        0.32270        0.58610
H          0.44820       -2.72900        0.79350
H          1.68100       -1.58880        1.33680
H          0.09490       -1.61970        2.12690
H          0.76990       -1.76020       -1.59240
H          0.35300       -0.06940       -1.89850
H          3.17250        1.09030        0.23380
H          3.41240        1.41920       -1.47090
H          1.81500        1.70650       -0.73250
H          4.97430       -1.62600       -1.40060
