12
gdb 1403	7.32079	1.44499	1.25677	4.8335	56.7	-0.2889	0.006	0.2949	877.2135	0.088049	-323.347275	-323.339673	-323.338729	-323.379109	26.357
O         -0.08190        1.44510        0.00140
C          0.00880        0.03380        0.01520
C          0.68650       -0.51290       -1.27270
C         -0.00740       -0.08530       -2.48400
N         -0.56000        0.23900       -3.44500
C          0.71360       -0.47230        1.19500
C          1.33500       -0.86140        2.14720
H          0.78730        1.80530        0.21150
H         -1.02840       -0.31910        0.02850
H          1.72540       -0.16680       -1.30770
H          0.71280       -1.60700       -1.23680
H          1.86230       -1.20860        3.00190
