16
gdb 7890	3.49866	1.81481	1.27942	2.978	66.76	-0.2407	-0.008	0.2327	953.2011	0.130729	-379.990467	-379.982543	-379.981598	-380.022653	28.895
C         -0.06510        1.55560        0.00080
C          0.04840        0.02990       -0.02090
N          0.83020       -0.46670       -1.16080
C          1.78090       -1.17450       -0.67920
C          2.82610       -1.87660       -1.48020
N          1.79110       -1.26640        0.71740
C          0.74100       -0.52040        1.23780
O          0.47520       -0.35950        2.40360
H          0.92690        2.01670        0.01430
H         -0.59380        1.90640       -0.88830
H         -0.60820        1.87260        0.89490
H         -0.96010       -0.40210       -0.06910
H          2.65650       -1.68090       -2.53890
H          3.82840       -1.52920       -1.20560
H          2.79250       -2.95750       -1.30390
H          2.47160       -1.74810        1.28280
