16
gdb 12897	3.53721	1.81586	1.54638	3.5888	69.31	-0.2529	0.0107	0.2636	871.4364	0.130896	-342.758647	-342.751215	-342.75027	-342.790096	27.873
C         -0.00120        1.52220        0.07660
C         -0.02090        0.02700       -0.03390
C         -1.27530       -0.84280       -0.15420
C         -0.58520       -1.80610        0.84470
N          0.61260       -0.89710        0.98710
C          1.20070       -0.75760       -0.37580
C          1.19560       -1.83360       -1.33270
N          1.18780       -2.69830       -2.10170
H          0.97710        1.87790        0.41170
H         -0.22160        1.98370       -0.89250
H         -0.75300        1.86650        0.79430
H         -2.15910       -0.35730        0.26360
H         -1.51410       -1.22210       -1.15060
H         -1.08730       -1.87840        1.81010
H         -0.33880       -2.80910        0.48820
H          2.13960       -0.21240       -0.34480
