17
gdb 20160	3.75981	2.72514	2.07331	1.1013	73.11	-0.2067	-0.0031	0.2037	707.5097	0.145388	-326.650124	-326.644488	-326.643544	-326.679362	24.059
C         -0.02050        1.47980       -0.17200
C          1.53220        1.59580        0.07770
C          1.95330        2.29650        1.39440
C          1.19810        1.43600        2.41530
C          0.94040        0.23170        1.89080
C         -0.37980       -0.41930        1.49650
N         -0.04130       -0.02130        0.06800
C          1.42290        0.11220        0.45860
H         -0.65360        2.05780        0.50910
H         -0.32360        1.69030       -1.19990
H          2.11120        1.87570       -0.80490
H          3.04560        2.31520        1.51660
H          1.61450        3.33790        1.44140
H          0.69390        1.86480        3.27460
H         -0.42610       -1.51120        1.53890
H         -1.29570        0.00830        1.91530
H          2.11770       -0.66800        0.14230
