19
gdb 2464	5.35561	2.11745	1.79515	0.2777	70.15	-0.2578	0.0823	0.3401	781.8658	0.173753	-273.789182	-273.782512	-273.781568	-273.819482	26.538
C          0.01720        1.55980        0.01310
C          0.07000        0.03350        0.00750
C          0.83840       -0.58500       -1.18900
C          1.29280       -1.96370       -0.70710
C          2.55770       -2.03110        0.11040
C          1.22350       -1.97160        0.80980
C          0.72630       -0.59780        1.26260
H          1.02620        1.98670        0.06150
H         -0.46370        1.94720       -0.89170
H         -0.54450        1.93800        0.87420
H         -0.95820       -0.35030       -0.04150
H          0.20660       -0.65180       -2.08000
H          1.69720        0.04380       -1.45970
H          1.00840       -2.83800       -1.28190
H          3.09950       -2.97130        0.13030
H          3.19510       -1.15100        0.14420
H          0.88820       -2.85180        1.34710
H          1.55650        0.02760        1.61720
H          0.01590       -0.67370        2.09150
