15
gdb 412	5.30044	2.98932	2.47639	2.1168	52.8	-0.2463	0.0724	0.3186	582.3057	0.13149	-287.663174	-287.656474	-287.65553	-287.693286	24.487
C         -0.08320        1.57370       -0.16310
C         -0.10250        0.06270       -0.09050
C         -1.39940       -0.54730        0.41030
O         -1.60650       -0.24740        1.78000
C          0.78220       -0.73610       -0.97250
N          1.07110       -0.64140        0.47480
H          0.90740        1.94890       -0.44010
H         -0.80040        1.94070       -0.90580
H         -0.36110        1.99940        0.80620
H         -2.25700       -0.13290       -0.13090
H         -1.38170       -1.63350        0.23790
H         -0.82780       -0.58700        2.23820
H          0.47510       -1.72130       -1.31340
H          1.42870       -0.20200       -1.66420
H          1.82980        0.01930        0.62530
