15
gdb 3451	4.4899	2.79691	2.0763	1.8615	55.42	-0.2519	0.0776	0.3295	646.9868	0.126566	-345.645053	-345.638971	-345.638027	-345.674853	23.501
O          0.06530        1.37960       -0.12710
C          0.03530       -0.03390       -0.07280
C          0.75770       -0.63630        1.16500
C          0.02110       -1.95270        1.49960
C         -1.37980       -1.72810        0.96020
O         -1.93670       -0.45280        1.31920
C         -1.36580       -0.61660        0.00660
H         -0.44790        1.69530        0.62640
H          0.50880       -0.37000       -1.00310
H          1.82540       -0.77780        0.98660
H          0.65670        0.07100        1.99240
H          0.46550       -2.80780        0.97600
H          0.03030       -2.18530        2.56900
H         -2.09730       -2.54250        0.89990
H         -2.06090       -0.51890       -0.82310
