18
gdb 14640	16.54761	0.54104	0.53079	0.0001	87.21	-0.2382	0.0521	0.2903	2087.858	0.15056	-310.630031	-310.619391	-310.618446	-310.669575	34.29
C         -0.00970        1.49780        0.00940
C         -0.00600        0.04470       -0.08490
C          0.01070       -1.15660       -0.16820
C         -0.00870       -2.61190       -0.25350
C         -1.35070       -3.21730        0.23930
C         -1.37010       -4.67260        0.15400
C         -1.35340       -5.87380        0.07070
C         -1.34980       -7.32690       -0.02360
H          0.80900        1.85920        0.64170
H          0.10400        1.96250       -0.97640
H         -0.94700        1.86630        0.44130
H          0.16470       -2.93450       -1.28690
H          0.80890       -3.03840        0.33980
H         -1.52410       -2.89460        1.27280
H         -2.16830       -2.79070       -0.35390
H         -2.16550       -7.68800       -0.66000
H         -0.41060       -7.69580       -0.45090
H         -1.46860       -7.79160        0.96150
