18
gdb 12421	2.99196	2.01082	1.478	1.6806	62.99	-0.2547	0.0712	0.3259	885.4422	0.155675	-422.080994	-422.073614	-422.07267	-422.112256	29.2
O          0.05360        1.43250       -0.02010
C          0.04990        0.01970       -0.01840
C          0.80370       -0.55440        1.19510
C          0.60530       -2.06840        1.30310
O         -0.77820       -2.41120        1.31160
C         -1.41080       -2.03210        0.09770
C         -1.39570       -0.51190       -0.04190
O         -2.13840        0.09660        1.01630
H         -0.65810        1.68670        0.58370
H          0.55330       -0.29620       -0.94170
H          1.86780       -0.30760        1.12580
H          0.42260       -0.07410        2.10460
H          1.10450       -2.58340        0.46530
H          1.02280       -2.46090        2.23420
H         -0.91170       -2.50240       -0.76530
H         -2.43870       -2.40170        0.15130
H         -1.88220       -0.20400       -0.97360
H         -1.96760       -0.43440        1.80500
