16
gdb 14033	5.73842	1.15851	1.08478	0.4298	61.03	-0.2583	0.0617	0.32	1083.7704	0.129297	-420.819744	-420.811898	-420.810954	-420.852534	28.084
O          0.06590        1.31010       -0.56460
C          0.07310        0.14500        0.23960
C         -1.30700       -0.44910        0.36000
O         -1.78710       -1.10420       -0.84150
C         -1.55480       -1.88810        0.30800
C         -0.62740       -3.09950        0.37520
O         -1.63630       -3.83670        1.10020
C         -2.59980       -2.76450        0.99090
H         -0.29500        1.05510       -1.42140
H          0.76580       -0.61530       -0.15270
H          0.43550        0.45240        1.22670
H         -2.05300        0.19140        0.83260
H         -0.40180       -3.54470       -0.60210
H          0.29900       -2.98970        0.95140
H         -2.96380       -2.43180        1.97010
H         -3.45120       -3.02740        0.35040
