20
gdb 18362	3.10652	2.17599	1.56528	1.6907	73.66	-0.2417	0.078	0.3198	892.0195	0.179238	-349.009923	-349.002604	-349.00166	-349.041258	28.713
C         -0.08000        1.53980        0.04800
C          0.11420        0.02670       -0.03270
C          1.05350       -0.45430       -1.15960
C          1.42840       -1.89330       -0.75190
C          1.53600       -1.84760        0.78110
C          2.74970       -1.08650        1.35110
O          1.95160        0.08020        1.64010
C          0.73470       -0.59140        1.22510
H          0.86860        2.02850        0.28740
H         -0.44660        1.94220       -0.90190
H         -0.80280        1.80980        0.82550
H         -0.86330       -0.46010       -0.16900
H          0.59140       -0.39820       -2.14930
H          1.94660        0.18150       -1.18190
H          0.62770       -2.58420       -1.04160
H          2.34780       -2.25020       -1.22750
H          1.31270       -2.79880        1.26530
H          3.18170       -1.51620        2.26420
H          3.56080       -0.86810        0.64370
H          0.03290       -0.68350        2.06230
