17
gdb 11544	3.97121	1.29035	1.02537	3.042	65.99	-0.2409	0.0316	0.2725	1136.9056	0.141561	-401.009747	-401.001025	-401.000081	-401.043988	30.131
C          0.94390        1.00670       -0.10950
N          0.85430       -0.33900        0.42000
C         -0.09090       -0.70690        1.32830
O         -0.94850        0.04180        1.76190
C         -0.01270       -2.18340        1.74610
C          1.36160       -2.62550        2.19340
C          1.92450       -3.92800        1.81580
O          2.36470       -2.73000        1.16850
H          0.83620        1.01350       -1.20000
H          0.13310        1.58730        0.33200
H          1.90090        1.47470        0.14780
H          1.54260       -1.02650        0.15170
H         -0.73350       -2.31940        2.55570
H         -0.33330       -2.80200        0.89960
H          1.72920       -2.16000        3.10820
H          2.66690       -4.40620        2.45200
H          1.33590       -4.60390        1.19740
