18
gdb 15408	2.99485	1.32292	1.00801	2.9797	70.69	-0.2411	-0.0168	0.2243	1187.1304	0.151465	-384.930611	-384.921777	-384.920832	-384.964818	31.17
C          0.08480        1.46010        0.19610
C         -0.12490       -0.01210        0.50000
O          1.13820       -0.58560        0.82560
C          1.08280       -1.94590        1.07330
C          2.15850       -2.52090        1.90500
C          0.73710       -2.46300        2.47980
C          0.47180       -1.49910        3.56830
O         -0.31160       -1.68620        4.46890
H          0.77450        1.58600       -0.64310
H         -0.86770        1.93200       -0.06180
H          0.50260        1.97630        1.06490
H         -0.82320       -0.14530        1.34010
H         -0.55470       -0.53480       -0.36900
H          0.68040       -2.54360        0.25380
H          2.56110       -3.49650        1.66090
H          2.87220       -1.81830        2.32270
H          0.17510       -3.38780        2.54840
H          1.06300       -0.55900        3.50320
