20
gdb 7341	4.26826	0.94408	0.87753	1.1386	71.67	-0.241	-0.0101	0.2309	1389.0533	0.173948	-386.162882	-386.152635	-386.151691	-386.198964	35.487
C          0.03230        1.52640        0.08480
C          0.02770       -0.01540        0.01420
C          0.60720       -0.51600       -1.31270
C          0.83160       -0.55040        1.20330
O          2.03460       -0.68690        1.14600
C          0.05000       -0.87170        2.46440
C          0.93040       -1.20930        3.65750
O          0.06790       -1.50340        4.74740
H          1.05430        1.90760       -0.00560
H         -0.56310        1.94460       -0.73240
H         -0.38600        1.89540        1.02680
H         -1.00950       -0.35740        0.12010
H          1.66340       -0.24590       -1.38740
H          0.53550       -1.60500       -1.39350
H          0.06990       -0.07590       -2.15820
H         -0.61570       -0.03330        2.70720
H         -0.62030       -1.71510        2.24640
H          1.57760       -2.06080        3.40620
H          1.59180       -0.35920        3.88020
H          0.61380       -1.73240        5.50500
