19
gdb 19969	3.43958	1.73584	1.41605	2.0377	70.53	-0.2407	0.0733	0.314	950.5804	0.166501	-365.016298	-365.008323	-365.007379	-365.048946	29.435
C         -0.16570        1.57290       -0.06070
C          0.03620        0.06350       -0.03630
C          1.35390       -0.48720       -0.62270
O          1.73800       -1.06920        0.64480
C          0.52220       -0.61120        1.28340
C          0.80860        0.25160        2.48940
C          1.91840       -0.10990        3.40190
N          2.02180        1.07950        2.53120
H          0.68380        2.10340        0.37860
H         -0.29240        1.92390       -1.09070
H         -1.06230        1.86220        0.49720
H         -0.84440       -0.43630       -0.44800
H          1.25330       -1.25130       -1.40240
H          2.07420        0.27050       -0.95710
H         -0.10280       -1.46260        1.58810
H         -0.07460        0.73050        2.90930
H          1.84060        0.09950        4.46470
H          2.51610       -0.97850        3.14080
H          2.59780        0.81240        1.73360
