15
gdb 9562	4.2885	1.31874	1.24505	3.7186	73.55	-0.2644	0.0047	0.2692	1000.4628	0.117101	-325.500228	-325.491999	-325.491055	-325.532571	30.298
C         -0.03840        1.54120       -0.05030
C          0.01590        0.02180       -0.02730
C          1.34500       -0.66630       -0.24050
C          0.73080       -0.68740        1.14440
C          1.30870        0.08960        2.20290
N          1.77130        0.72050        3.05560
C         -1.16240       -0.64510       -0.51660
C         -2.15430       -1.18510       -0.92960
H          0.87510        1.97230        0.36610
H         -0.15440        1.89500       -1.07860
H         -0.88670        1.90630        0.53490
H          1.35940       -1.60390       -0.78200
H          2.20930       -0.02950       -0.38930
H          0.28690       -1.62170        1.46770
H         -3.02980       -1.66280       -1.29450
