15
gdb 20619	3.29339	2.03364	1.26995	2.4421	63.63	-0.1957	0.0483	0.244	910.0564	0.119505	-396.002878	-395.994494	-395.99355	-396.035359	30.212
C          0.07200        1.56720       -0.01360
C          0.03850        0.07180       -0.00880
C          0.01050       -0.79610       -1.08350
O         -0.01780       -0.60170       -2.42140
N          0.03290       -2.05600       -0.60790
N          0.06010       -2.09100        0.76190
C          0.07170       -0.81130        1.10790
N          0.18790       -0.42660        2.44720
H          0.79880        1.94420        0.71470
H          0.37190        1.96430       -0.99160
H         -0.89750        2.02290        0.22890
H         -0.04810        0.34550       -2.59090
H          0.02220       -2.90940       -1.13670
H          0.07420       -1.22500        3.06030
H         -0.46450        0.30220        2.70780
