19
gdb 5949	4.03554	1.2421	1.20406	4.8066	68.49	-0.2466	0.0318	0.2784	1076.1283	0.162896	-402.22415	-402.214259	-402.213315	-402.258458	35.249
C         -0.05390        1.58090        0.09140
C          0.00310        0.04400        0.08210
C          0.71540       -0.48530        1.33820
C         -1.42040       -0.53730       -0.00400
O         -2.14650       -0.12420        1.13620
N          0.68740       -0.43520       -1.13470
C          1.97150       -0.16440       -1.48060
O          2.75600        0.51560       -0.85070
H          0.95500        1.99320        0.13000
H         -0.54700        1.95190       -0.81320
H         -0.62180        1.92350        0.95900
H          0.16550       -0.18010        2.23100
H          0.76420       -1.57910        1.31970
H          1.73220       -0.09360        1.38500
H         -1.89630       -0.17990       -0.93270
H         -1.35420       -1.63720       -0.05880
H         -3.03820       -0.47730        1.07430
H          0.16840       -1.02520       -1.76710
H          2.24040       -0.65030       -2.44200
