16
gdb 17088	4.83355	1.63709	1.56099	1.969	69.82	-0.2434	0.0498	0.2931	858.1783	0.131425	-346.546309	-346.539687	-346.538743	-346.57694	26.394
C         -0.01800       -1.19220       -0.08280
C          0.00280        0.00810       -0.01770
C          0.03060        1.45800        0.04770
C         -0.42390        2.06910        1.42720
C          0.88150        2.82450        1.74670
C          1.23780        3.53800        0.42360
C          1.47230        2.05780        0.05680
O          1.89880        1.82280        1.42780
H         -0.03320       -2.25240       -0.13510
H         -0.55110        1.87190       -0.78290
H         -1.29470        2.72270        1.33580
H         -0.63160        1.29380        2.16510
H          0.99710        3.28070        2.72930
H          0.47060        4.11100       -0.10440
H          2.17520        4.08940        0.49600
H          2.17310        1.71330       -0.70220
