17
gdb 133	17.04187	1.92713	1.82903	0.0603	56.8	-0.3105	0.0925	0.403	721.0614	0.160138	-197.629416	-197.622321	-197.621376	-197.659721	24.552
C         -0.04070        1.56660        0.04870
C          0.00170        0.03690        0.00200
C          0.71010       -0.50960       -1.24220
C          0.75840       -2.04020       -1.29880
C          1.46780       -2.57550       -2.54550
H          0.96980        1.99050        0.04890
H         -0.56790        1.97450       -0.82110
H         -0.55250        1.92730        0.94660
H          0.50500       -0.34390        0.90070
H         -1.02170       -0.35990        0.03850
H          0.20720       -0.12890       -2.14260
H          1.73450       -0.11250       -1.28030
H          1.26140       -2.41930       -0.39910
H         -0.26540       -2.43560       -1.26090
H          0.96610       -2.24080       -3.46040
H          2.50470       -2.22420       -2.59210
H          1.48680       -3.66990       -2.55830
