17
gdb 7860	4.73571	1.14537	1.06022	3.5275	65.33	-0.2402	0.0311	0.2714	1137.739	0.141164	-401.020609	-401.011946	-401.011002	-401.054575	31.144
C          0.08140        1.60070       -0.00020
C          0.46290        0.14420       -0.02300
O          1.78770       -0.20530        0.40780
C          0.66940       -0.70290        1.16680
C          0.53890       -0.23320        2.59910
C          1.66340       -0.74320        3.51400
N          2.91730       -0.46100        3.05910
O          1.44250       -1.30580        4.56760
H          0.39900        2.09620        0.91900
H          0.54830        2.12210       -0.84210
H         -1.00380        1.70900       -0.10040
H          0.16660       -0.37940       -0.93410
H          0.51510       -1.77560        1.03780
H          0.53280        0.85970        2.64750
H         -0.39980       -0.59660        3.02310
H          3.05730       -0.13110        2.11660
H          3.69740       -0.83340        3.57550
