21
gdb 9852	3.16003	1.39076	1.31542	2.1476	75.04	-0.2408	0.0718	0.3126	1089.9849	0.1868	-366.230773	-366.221145	-366.2202	-366.265007	35.027
C          0.14560        1.29730       -0.28760
O          0.05150       -0.08070       -0.01360
C         -1.27190       -0.57800        0.13500
C         -2.03690       -0.60360       -1.19420
C         -1.14830       -1.95630        0.77310
C         -0.37450       -2.99320       -0.01300
C         -1.14820       -2.00840        2.25570
N         -2.32770       -2.47090        1.49440
H          1.20550        1.56080       -0.24310
H         -0.23520        1.56180       -1.28460
H         -0.39840        1.89790        0.45900
H         -1.82100        0.07010        0.84250
H         -1.47260       -1.15170       -1.95350
H         -3.00770       -1.09210       -1.06450
H         -2.22120        0.40670       -1.56920
H          0.63490       -2.63080       -0.22570
H         -0.30760       -3.92330        0.55630
H         -0.86600       -3.22180       -0.96420
H         -0.60140       -2.79450        2.76910
H         -1.21430       -1.07240        2.80480
H         -3.05540       -1.75960        1.53260
