18
gdb 13778	3.05585	1.47705	1.30281	2.9943	69.25	-0.2594	-0.043	0.2164	1036.9494	0.150788	-384.932415	-384.923443	-384.922499	-384.966242	31.749
C         -0.91870        2.63180        0.95870
C         -0.70590        1.32690        0.17520
C          0.36580        0.43990        0.82330
C         -2.01720        0.57930        0.08110
O         -3.01150        1.08620       -0.79240
C         -2.47070       -0.19150       -1.11390
C         -1.62540       -0.31020       -2.34190
O         -1.11190        0.61020       -2.92560
H          0.01060        3.20760        1.00650
H         -1.68160        3.25170        0.47970
H         -1.23970        2.43030        1.98780
H         -0.39850        1.58280       -0.84290
H          0.54580       -0.46860        0.23920
H          1.31430        0.97920        0.90420
H          0.07150        0.13580        1.83500
H         -2.41100        0.22060        1.03720
H         -3.14160       -1.03620       -0.94720
H         -1.49080       -1.36210       -2.68250
