18
gdb 20184	3.32242	2.58423	1.98714	1.44	70.24	-0.2339	0.0888	0.3227	751.1113	0.157439	-347.775915	-347.769914	-347.76897	-347.805626	25.093
C         -0.00530        1.58320        0.00920
C          1.52470        1.59560       -0.07820
C          2.19340        0.72440        0.96340
C          1.69460        0.43470        2.36770
O          0.29030        0.26740        2.47170
C         -0.27280       -0.54810        1.45510
C          0.03500        0.01800        0.07200
C          1.55140        0.07100       -0.22290
H         -0.47260        2.10320        0.84830
H         -0.45450        1.92740       -0.92590
H          2.10660        2.32720       -0.62720
H          3.27910        0.77140        0.91020
H          2.20850       -0.47410        2.73020
H          1.94520        1.25090        3.05430
H          0.09630       -1.58560        1.53390
H         -1.34950       -0.55470        1.65370
H         -0.56140       -0.47640       -0.69730
H          2.08540       -0.55070       -0.93120
