19
gdb 2359	4.57634	1.91281	1.74547	1.5783	66.96	-0.2407	0.0792	0.3199	830.3351	0.171134	-310.908354	-310.900365	-310.899421	-310.940715	28.908
C          0.03840        1.53060       -0.01180
C          0.02630       -0.00570       -0.04780
C          0.74240       -0.52610       -1.30090
C          0.62240       -0.55020        1.25110
C          0.83820       -2.06940        1.44840
C          2.31150       -1.68360        1.68120
O          2.04890       -0.30110        1.36640
H          1.06570        1.90030        0.06960
H         -0.40240        1.95010       -0.92150
H         -0.52550        1.91510        0.84470
H         -1.02020       -0.34530       -0.06970
H          1.80190       -0.25560       -1.27180
H          0.67160       -1.61380       -1.39870
H          0.30370       -0.08880       -2.20310
H          0.09300       -0.09110        2.09980
H          0.31650       -2.51490        2.29670
H          0.66070       -2.67870        0.56100
H          2.66530       -1.80560        2.71330
H          3.04870       -2.12540        1.00050
