19
gdb 18532	4.97475	1.13821	1.04237	0.392	70.98	-0.2295	0.0799	0.3095	1162.1596	0.16594	-365.00613	-364.998026	-364.997082	-365.03907	30.097
O          0.03090        1.49010        0.20020
C          0.07430        0.07510        0.08030
C         -1.36270       -0.42910        0.01070
C         -1.44370       -1.94240       -0.10660
C         -2.80830       -2.64040       -0.37220
C         -2.14610       -3.25240       -1.60450
C         -1.62880       -2.20260       -2.49850
N         -0.80990       -2.58240       -1.32950
H          0.93460        1.81840        0.19200
H          0.61810       -0.23700       -0.82360
H          0.58660       -0.38310        0.94240
H         -1.89430       -0.11510        0.91790
H         -1.86720        0.06600       -0.82650
H         -0.94890       -2.39420        0.75910
H         -3.07450       -3.36440        0.39970
H         -3.67430       -1.99930       -0.56600
H         -2.20490       -4.29520       -1.89910
H         -1.17330       -2.51150       -3.43430
H         -2.11600       -1.23150       -2.53610
