15
gdb 18156	4.53486	1.49057	1.41869	1.9165	64.51	-0.246	0.0149	0.2609	923.9974	0.11784	-399.753047	-399.745501	-399.744556	-399.78508	27.621
C         -0.13250        1.36400       -0.05670
N         -0.08330       -0.07790        0.13380
C         -1.11940       -0.75660       -0.00130
O         -2.44220       -0.34280       -0.30890
C         -2.91790       -1.68950       -0.05320
C         -2.34700       -2.58360       -1.08580
O         -2.10860       -2.18040       -2.38620
C         -1.48410       -2.19110        0.13400
H          0.50770        1.63320       -0.90410
H         -1.13950        1.75830       -0.23580
H          0.28730        1.85360        0.82810
H         -3.81560       -1.78900        0.54340
H         -2.66770       -3.62070       -1.04430
H         -2.18000       -1.21680       -2.40220
H         -1.04530       -2.90900        0.81140
