15
gdb 3163	3.83597	2.78561	1.92078	2.1637	57.22	-0.2548	0.0587	0.3135	688.3455	0.124445	-345.615452	-345.608685	-345.607741	-345.645963	25.278
O          0.22870        1.12460       -0.56970
C          0.03190       -0.12400        0.04450
C         -0.02950       -0.21720        1.60330
C         -1.28420       -1.13300        1.46990
C         -1.40810       -0.62590        0.03130
C         -2.54350        0.01110       -0.63300
O         -2.04500       -1.27350       -1.04780
H          1.17270        1.26840       -0.68440
H          0.70300       -0.89070       -0.36880
H          0.84120       -0.62680        2.11830
H         -0.27990        0.75890        2.02500
H         -1.03190       -2.19670        1.50210
H         -2.12200       -0.94650        2.14410
H         -3.52320       -0.00200       -0.15680
H         -2.36240        0.82600       -1.33020
