13
gdb 2137	3.64951	3.47962	1.9328	2.3596	54.48	-0.2463	-0.0165	0.2298	643.2025	0.10317	-340.688787	-340.68249	-340.681546	-340.718918	22.863
C         -0.05070        1.55530       -0.00710
C          0.04890        0.02870       -0.02020
N          0.83300       -0.47900       -1.15820
C          1.76680       -1.18700       -0.65390
N          1.78010       -1.28040        0.73420
C          0.72900       -0.52290        1.24550
O          0.45760       -0.35740        2.40860
H          0.94530        2.00710        0.00880
H         -0.57270        1.90600       -0.90010
H         -0.59470        1.88030        0.88340
H         -0.96150       -0.39700       -0.07590
H          2.52520       -1.70450       -1.23280
H          2.45440       -1.76890        1.30070
