17
gdb 5526	3.19732	1.79168	1.24205	2.9623	71.46	-0.1817	0.0366	0.2183	990.4252	0.144067	-360.087533	-360.079285	-360.078341	-360.120541	30.022
C         -0.32940        1.56270       -0.02720
C          0.03110        0.06590        0.03090
C          0.77980       -0.43960       -1.15710
C          2.10280       -0.77240       -1.34620
N          3.14170       -0.75680       -0.39920
N          2.32560       -1.21930       -2.62640
C          1.15510       -1.15960       -3.22470
N          0.19270       -0.68580       -2.39360
H          0.57030        2.17940       -0.11560
H         -0.96470        1.78560       -0.89120
H         -0.86980        1.87200        0.87340
H          0.64750       -0.12880        0.91550
H         -0.88860       -0.51870        0.17400
H          3.25350        0.14390        0.04970
H          4.01170       -1.00480       -0.85500
H          0.95270       -1.44250       -4.24670
H         -0.77910       -0.55620       -2.61880
