15
gdb 14250	4.12493	1.75472	1.59606	4.8787	60.68	-0.241	0.0019	0.2429	838.1239	0.119521	-399.791074	-399.784213	-399.783269	-399.822168	25.866
C          0.38310        1.51580        0.01090
C          0.11270        0.02400        0.04820
N          0.95820       -0.80670       -0.87030
C          1.27730       -1.75930        0.22740
C          0.61930       -0.81090        1.24850
O          1.93690       -0.41820        1.73890
C          2.58500       -1.32120        0.90880
O          3.74740       -1.54610        0.85640
H          1.43580        1.71870        0.21930
H          0.14280        1.92100       -0.97690
H         -0.23000        2.03890        0.75250
H         -0.95880       -0.18020       -0.08580
H          0.44740       -1.22970       -1.63530
H          1.07630       -2.81970        0.08150
H         -0.04540       -1.07410        2.06830
