18
gdb 7666	4.06673	1.74157	1.4304	1.8896	68.	-0.2522	0.0762	0.3285	921.5318	0.152331	-384.875977	-384.868254	-384.86731	-384.907361	30.507
C         -0.11870        1.54940        0.76240
C         -0.11410        0.05690        0.48140
C          1.01750       -0.52860       -0.40080
O          1.97950       -0.25920        0.70920
C          0.77610       -0.86030        1.35760
C          0.80860       -1.95280        0.22880
C         -0.37700       -2.83660       -0.10060
O          1.94140       -2.76800        0.23050
H          0.89140        1.90750        0.96860
H         -0.51780        2.10310       -0.09420
H         -0.75380        1.77870        1.62470
H         -1.11830       -0.31740        0.27290
H          1.33670       -0.24870       -1.40660
H          0.80830       -0.97500        2.44280
H         -1.32570       -2.30080       -0.12950
H         -0.21420       -3.30990       -1.07330
H         -0.44970       -3.63420        0.64460
H          2.67240       -2.16850        0.44400
