19
gdb 5947	2.92704	1.48232	1.27983	4.6585	71.71	-0.265	0.0346	0.2996	1054.5423	0.162559	-365.077244	-365.067559	-365.066614	-365.111484	34.682
C          0.10700        1.36820        0.09800
O         -0.04980       -0.02930       -0.02460
C         -1.37470       -0.56110        0.00680
C         -2.15370       -0.12360        1.25480
C         -2.13970       -0.20400       -1.27730
C         -1.12880       -2.09090        0.02090
C         -0.43330       -2.55520        1.21920
N          0.09880       -2.93410        2.17220
H          1.17490        1.56540       -0.02120
H         -0.43540        1.92660       -0.67780
H         -0.20580        1.74180        1.08170
H         -2.38240        0.94490        1.22540
H         -3.10560       -0.66030        1.31390
H         -1.58220       -0.33540        2.16210
H         -1.56520       -0.50090       -2.15960
H         -3.11080       -0.70770       -1.30590
H         -2.32840        0.87110       -1.33650
H         -2.08160       -2.62370       -0.06160
H         -0.52520       -2.35120       -0.85440
