13
gdb 6634	6.0114	0.80206	0.71387	5.6227	68.84	-0.2714	-0.0646	0.2067	1475.453	0.092808	-361.460774	-361.451934	-361.45099	-361.496842	28.816
C         -0.06210        1.52110        0.01180
C          0.08070        0.01440        0.00100
O          1.14880       -0.55480       -0.01290
C         -1.17050       -0.73250        0.00860
C         -2.20290       -1.35380        0.01490
C         -3.45760       -2.09870        0.02310
C         -3.27790       -3.55630        0.01470
N         -3.15950       -4.70430        0.00830
H          0.92700        1.98090        0.00500
H         -0.63590        1.85090       -0.86120
H         -0.61880        1.83990        0.89980
H         -4.04920       -1.82640        0.90690
H         -4.06530       -1.81830       -0.84720
