12
gdb 4251	3.85382	2.10068	1.35958	4.1531	60.9	-0.2431	-0.0434	0.1997	818.2324	0.086016	-414.726994	-414.720684	-414.71974	-414.757661	23.588
N         -0.05100        1.28330        0.34450
C         -0.07500        0.07670       -0.03130
O          1.11820       -0.55410       -0.43250
C          1.22420       -1.84490       -0.85630
O          2.28000       -2.30810       -1.18310
N          0.03640       -2.55130       -0.87800
C         -1.17700       -2.01310       -0.50260
C         -1.26750       -0.74270       -0.08690
H          0.89680        1.65910        0.30200
H          0.11440       -3.50490       -1.19200
H         -2.02530       -2.68230       -0.56960
H         -2.20290       -0.29580        0.21250
