15
gdb 18312	3.69978	2.1445	1.46242	3.1812	68.15	-0.2244	-0.0191	0.2053	830.2836	0.120098	-362.635814	-362.629301	-362.628356	-362.666561	25.058
O         -0.10020       -0.00530        0.05870
C         -0.04910        1.18960        0.01690
C         -1.26510        2.17300        0.06220
C         -0.65360        3.41950        0.67660
C          0.66850        3.38650        0.52100
C          1.98630        3.61840        1.22440
N          2.25930        2.14830        1.00240
C          1.19370        2.11000       -0.04990
H         -1.64840        2.30860       -0.95880
H         -2.08400        1.74920        0.65200
H         -1.22160        4.11710        1.28080
H          2.67910        4.27440        0.67970
H          1.95230        3.92360        2.27470
H          3.18920        1.96120        0.63970
H          1.57540        2.13330       -1.08160
