17
gdb 13274	8.90097	0.80009	0.77585	4.4854	70.7	-0.2404	0.0107	0.2511	1459.333	0.140861	-400.962049	-400.953381	-400.952436	-400.996739	29.036
C          0.07710        1.44720       -0.02270
O         -0.08590        0.03300       -0.01460
C          0.52920       -0.63090       -1.00760
N          0.44800       -1.88580       -1.08900
C          1.13060       -2.52750       -2.17690
C          2.00140       -3.75360       -1.80940
O          1.30300       -4.58940       -2.75360
C          0.31160       -3.56760       -2.97940
H          1.13110        1.73000        0.08540
H         -0.32580        1.89220       -0.94040
H         -0.48340        1.82460        0.83300
H          1.08660        0.00820       -1.71140
H          1.66220       -1.82060       -2.83230
H          3.07300       -3.68680       -2.02950
H          1.85500       -4.08140       -0.77270
H         -0.64940       -3.80580       -2.50680
H          0.16050       -3.36630       -4.04620
