15
gdb 13319	5.74719	1.24448	1.08757	4.9396	61.7	-0.2719	0.0326	0.3045	1046.06	0.119485	-399.812439	-399.804843	-399.803898	-399.846203	26.126
N          0.09260       -1.18410        0.20720
C          0.06630       -0.04750        0.00350
C          0.03170        1.39060       -0.23910
C          1.38260        2.06620        0.03890
O          2.37750        1.62470       -0.86540
C          2.90430        2.76280       -1.54580
C          2.45020        3.92960       -0.66810
O          1.21600        3.45030       -0.14520
H         -0.24610        1.58650       -1.27910
H         -0.72650        1.84870        0.40470
H          1.71920        1.84040        1.06420
H          3.99090        2.66420       -1.61580
H          2.48460        2.83190       -2.55800
H          3.16740        4.12750        0.14140
H          2.25650        4.85430       -1.21450
