17
gdb 18557	3.56004	2.10577	1.60778	3.6527	67.83	-0.2392	0.0142	0.2535	830.0003	0.14509	-363.895508	-363.888856	-363.887912	-363.926475	25.692
O          0.03010        0.09630        0.64560
C         -0.05170        1.22240        0.24080
C         -1.18560        2.23400       -0.02650
C         -0.04270        3.27430       -0.18850
C          0.30700        4.23750        0.97210
C          1.36760        3.48780        1.82040
C          2.03040        2.49460        0.83400
N          0.94180        2.16030       -0.07990
H         -1.79960        2.04520       -0.90940
H         -1.83570        2.37730        0.84020
H         -0.02010        3.77660       -1.15850
H          0.72850        5.16150        0.56470
H         -0.56980        4.51850        1.56150
H          2.08510        4.16660        2.28810
H          0.88250        2.92050        2.62160
H          2.85610        2.95780        0.28240
H          2.40080        1.58600        1.31290
