16
gdb 12933	3.49174	1.58637	1.31374	2.5537	60.45	-0.2319	0.0557	0.2876	946.4081	0.129429	-420.810337	-420.802519	-420.801574	-420.842697	29.127
O          0.06760        1.30820       -0.31690
C          0.06380       -0.00870        0.21500
C         -1.31620       -0.62580        0.17820
C         -1.91870       -1.24640       -1.06510
O         -0.91330       -1.92350       -1.83210
C         -0.67070       -2.85770       -0.74630
C         -1.63650       -2.09720        0.16270
O         -2.41880       -2.65370        1.14930
H         -0.18560        1.23890       -1.24350
H          0.78130       -0.64990       -0.31350
H          0.40480        0.08640        1.25090
H         -2.06730       -0.08200        0.74850
H         -2.81580       -0.91570       -1.57510
H         -1.04110       -3.85690       -1.01230
H          0.38540       -2.92150       -0.46320
H         -2.93090       -3.37530        0.76530
