16
gdb 15501	3.6428	1.89129	1.29028	5.0653	67.04	-0.2473	-0.0221	0.2252	916.7054	0.132909	-379.971871	-379.964704	-379.96376	-380.003433	26.482
N         -0.14180        1.28910       -0.18240
C         -0.06820        0.03590       -0.03900
C         -1.25290       -0.89400        0.14450
C         -0.64680       -2.15760        0.77500
C          0.76360       -2.20630        0.16660
N          1.09650       -0.78760       -0.01510
C          2.38390       -0.34440       -0.16110
O          2.71960        0.80770       -0.33540
H          0.78800        1.69140       -0.30660
H         -2.03040       -0.41680        0.74130
H         -1.68200       -1.11550       -0.84050
H         -0.57590       -2.04090        1.86090
H         -1.21510       -3.06620        0.56890
H          1.49700       -2.69660        0.81200
H          0.75900       -2.72650       -0.80020
H          3.11490       -1.17400       -0.09510
