16
gdb 3573	4.67858	2.87505	2.38605	1.5022	63.14	-0.2135	0.0645	0.2781	632.9391	0.137486	-288.538806	-288.532658	-288.531714	-288.568448	24.315
C         -0.07230        1.60290       -0.00560
C          0.04280        0.08770       -0.13220
C          0.53650       -0.77960       -1.23010
C          1.83040       -0.38900       -1.96610
C          2.44000        0.90310       -1.49660
C          2.47940       -0.31050       -0.60510
N          1.22920       -0.77370        0.11770
H         -0.15660        2.10490       -0.97290
H         -0.97380        1.84410        0.56470
H          0.77510        2.03200        0.53480
H         -0.78560       -0.40850        0.37370
H         -0.02360       -1.65680       -1.54440
H          2.16280       -0.90860       -2.85460
H          3.40870        1.09610       -1.95120
H          1.87600        1.80110       -1.30090
H          3.40910       -0.73090       -0.24380
