13
gdb 17227	5.5665	1.70148	1.55417	3.7185	62.85	-0.2579	0.0098	0.2677	792.2817	0.096541	-361.404611	-361.39869	-361.397746	-361.434618	23.015
N          0.10810       -1.10130       -0.08640
C          0.03090        0.05310       -0.03030
C         -0.05690        1.46860        0.04140
C         -1.13750        2.34320        0.68640
C         -0.42990        3.51640       -0.03460
O          0.85930        3.60520        0.64390
C          1.20120        2.40330       -0.01590
C          0.17510        2.50180       -1.07730
H         -2.11960        2.13260        0.25850
H         -1.18520        2.39840        1.77680
H         -0.89750        4.47940       -0.21860
H          2.21720        2.03400        0.00880
H          0.17490        2.39960       -2.15290
