16
gdb 3597	5.65801	1.70571	1.46835	2.6024	61.29	-0.2467	0.0728	0.3195	851.6809	0.13652	-325.725069	-325.717869	-325.716925	-325.756657	26.014
C         -0.45220        1.42090        0.23820
C         -0.01520       -0.02280        0.15330
N          1.28550       -0.30020       -0.47250
C          1.09560       -0.61470        0.95430
C          1.92210        0.15490        1.92990
C          1.85230       -0.11800        3.37130
O          2.95480       -0.58450        2.59450
H          0.39620        2.08390        0.42100
H         -0.92120        1.73320       -0.70090
H         -1.18280        1.56090        1.04220
H         -0.82510       -0.71610       -0.07410
H          1.25360       -1.14620       -1.03400
H          0.98780       -1.66190        1.23410
H          2.22840        1.14690        1.60250
H          2.07790        0.67370        4.08460
H          1.17910       -0.89210        3.73930
