14
gdb 15450	3.2742	1.9509	1.34337	2.6788	68.75	-0.2419	-0.0262	0.2157	889.9594	0.105948	-345.394512	-345.387213	-345.386269	-345.426651	27.056
O         -0.03150        0.03830        0.09230
C         -0.05460        1.23490        0.05640
C         -1.30320        2.12390       -0.02630
C         -0.74570        3.51920       -0.01070
C          0.58520        3.54920        0.04280
C          1.20420        2.16660        0.06820
C          2.08250        1.91530        1.20150
C          2.79540        1.72130        2.14910
H         -1.86600        1.88200       -0.93730
H         -1.97560        1.90450        0.81290
H         -1.37950        4.39790       -0.04080
H          1.19660        4.44240        0.07310
H          1.75840        1.96150       -0.86090
H          3.42820        1.54060        2.98240
