14
gdb 5913	4.12214	1.29158	1.2275	0.8795	62.16	-0.321	-0.0099	0.311	990.051	0.105074	-378.745558	-378.736936	-378.735992	-378.778609	30.403
C          0.07650        1.57600       -0.00600
C          0.00690        0.04580        0.00660
O          0.68560       -0.37630        1.17150
C         -1.46550       -0.47000       -0.00640
C         -2.21590       -0.01530        1.16030
N         -2.81720        0.34800        2.07690
C          0.67120       -0.50540       -1.20040
N          1.18240       -0.96770       -2.12770
H          1.12050        1.89310        0.00480
H         -0.41090        1.98070       -0.89570
H         -0.42060        1.96060        0.88730
H          0.74290       -1.33910        1.18060
H         -1.96900       -0.13310       -0.91850
H         -1.46680       -1.56540       -0.02900
