11
gdb 3402	5.29245	2.46334	2.29863	3.5322	46.57	-0.272	-0.01	0.262	588.9671	0.078161	-380.373569	-380.367951	-380.367007	-380.402953	21.011
O          0.01240        1.37860       -0.02710
C         -0.04350        0.00280        0.01230
C         -0.46730       -0.76410        1.20040
O         -1.47560        0.01810        1.89880
C         -2.36510       -0.15910        0.82230
O         -3.50580        0.15750        0.78740
C         -1.35110       -0.84020       -0.04180
H         -0.44760        1.71410        0.75420
H          0.74180       -0.44180       -0.59280
H          0.04300       -1.52820        1.77070
H         -1.52900       -1.61630       -0.77150
