12
gdb 3650	6.97393	2.94237	2.12541	5.1764	56.12	-0.2523	0.0088	0.2611	579.9325	0.093099	-319.515995	-319.510864	-319.509919	-319.544908	18.834
C         -0.02420        1.56220       -0.01380
C          1.54830        1.45150       -0.09840
C          1.34950       -0.00370        0.32250
C          1.56510       -1.31770        0.67380
N          0.33090       -1.86470        0.91720
N         -0.62930       -0.98320        0.74190
N          0.01750        0.13530        0.38170
H         -0.41640        2.21740        0.76580
H         -0.54310        1.73600       -0.95800
H          1.95970        1.60100       -1.09820
H          2.08560        2.07930        0.61460
H          2.46310       -1.90340        0.77130
