12
gdb 21512	5.24034	1.80706	1.3437	3.7806	57.85	-0.2826	-0.0418	0.2408	829.224	0.085981	-410.878246	-410.871528	-410.870584	-410.909643	23.848
N         -0.12420        1.29960        0.00970
C          0.06530       -0.03810        0.00160
O          1.11000       -0.62960       -0.00990
N         -1.20100       -0.74630        0.00910
N         -2.38070       -0.10900        0.02020
C         -3.26730       -1.09410        0.02370
C         -2.57260       -2.32080        0.01420
N         -1.26930       -2.07630        0.00500
H          0.69080        1.88620        0.00210
H         -1.05250        1.68760        0.01620
H         -4.32670       -0.89160        0.03250
H         -2.94770       -3.33190        0.01370
