19
gdb 7789	3.36329	1.71325	1.20524	3.2208	73.25	-0.2536	0.0247	0.2783	1021.4106	0.167201	-365.093081	-365.085306	-365.084362	-365.125107	29.698
C         -0.02370        1.56840        0.01980
C          0.01660        0.04040       -0.03640
C          0.78230       -0.48720       -1.25450
C          0.77860       -2.00950       -1.25430
O          1.27180       -2.58150       -0.03340
C          0.85950       -2.05450        1.16070
N          0.74730       -2.77530        2.19560
C          0.66390       -0.55700        1.22270
H          0.98890        1.98540        0.07450
H         -0.50870        1.98450       -0.86950
H         -0.57500        1.91850        0.89860
H         -1.01680       -0.33100       -0.10110
H          0.33280       -0.13310       -2.18960
H          1.81590       -0.11760       -1.23020
H         -0.24180       -2.38270       -1.42530
H          1.42000       -2.41690       -2.03980
H          0.95420       -3.74900        1.96020
H          1.65920       -0.10560        1.34740
H          0.09560       -0.33100        2.12680
