15
gdb 5753	5.27197	2.11713	1.76398	1.823	71.44	-0.1987	0.0218	0.2205	748.0764	0.12178	-325.492258	-325.486594	-325.485649	-325.521764	23.277
C         -0.09320        1.36140       -0.13650
C          1.29740        0.83230        0.09960
C          0.11000       -0.12550        0.13110
C          0.70280       -0.73280       -1.12370
C          0.55180       -1.20460       -2.40630
C          1.61930       -0.60800       -3.15780
C          2.32020        0.26320       -2.34370
N          1.79670        0.10930       -1.08240
H         -0.51730        1.94060        0.68080
H         -0.37960        1.69300       -1.12940
H          1.96220        1.15020        0.89160
H         -0.31640       -0.63270        0.98520
H         -0.19140       -1.89060       -2.78180
H          1.87300       -0.83820       -4.18300
H          3.19290        0.86440       -2.54460
