14
gdb 2278	9.89141	1.33616	1.26059	3.1311	56.58	-0.2589	0.018	0.2769	916.6208	0.113054	-361.677945	-361.670887	-361.669942	-361.711017	23.643
N          0.03740        1.30900        0.06680
C          0.02490        0.05050        0.00730
O         -1.11940       -0.62420        0.24910
C         -1.10120       -2.03220        0.17500
C         -1.74850       -2.77290        1.36100
O         -2.60990       -3.50580        0.46530
C         -2.23310       -2.67320       -0.65100
H          0.97040        1.65850       -0.14050
H          0.87440       -0.60550       -0.22980
H         -0.10110       -2.39430       -0.08380
H         -1.10960       -3.43330        1.95690
H         -2.30560       -2.09700        2.02200
H         -3.01430       -1.95120       -0.92050
H         -1.94960       -3.26050       -1.53080
