14
gdb 5510	3.77618	1.95121	1.29696	3.5378	73.63	-0.2164	-0.0106	0.2057	888.6288	0.107917	-341.59346	-341.585994	-341.58505	-341.625483	26.883
C         -0.03860        1.43490        0.07070
N         -0.02000       -0.01390        0.02830
C         -0.05700       -0.80510       -1.07550
N         -0.02610       -2.08930       -0.78120
C          0.03410       -2.14040        0.58120
C          0.03990       -0.86770        1.12350
C          0.09130       -0.40430        2.45000
C          0.13510        0.00180        3.58430
H          0.86560        1.81890        0.55100
H         -0.08830        1.81510       -0.95090
H         -0.90810        1.79390        0.62800
H         -0.10630       -0.38520       -2.06980
H          0.07080       -3.07500        1.11940
H          0.17410        0.34690        4.58760
