20
gdb 9850	3.43448	1.31912	1.23603	2.1689	71.02	-0.2541	0.0621	0.3163	1105.8633	0.175014	-386.12746	-386.118186	-386.117242	-386.16106	34.864
C         -0.07090        1.58480       -0.05890
C         -0.16650        0.06410       -0.19740
C          0.84100       -0.50340       -1.21160
O          2.17500       -0.15870       -0.86070
C          0.73190       -2.01240       -1.35750
O          1.17530       -2.69710       -0.20400
C         -0.35110       -2.64280       -2.18890
C          1.09700       -2.67740       -2.64520
H          0.94690        1.87670        0.21100
H         -0.32180        2.08200       -1.00270
H         -0.75600        1.95910        0.70770
H          0.01840       -0.40260        0.78050
H         -1.17960       -0.22900       -0.50160
H          0.65230       -0.04170       -2.18980
H          2.45610       -0.83120       -0.22650
H          0.47590       -2.65060        0.45740
H         -0.77780       -3.57090       -1.82450
H         -1.04760       -1.99680       -2.71340
H          1.39670       -2.05210       -3.47860
H          1.61540       -3.62600       -2.57110
