18
gdb 10918	3.1949	1.95495	1.51166	2.1689	67.16	-0.2457	0.0776	0.3234	899.7832	0.152206	-384.911816	-384.903568	-384.902624	-384.944012	31.13
C         -0.20830        1.52820        0.00390
C         -0.03870        0.01780       -0.05230
C          1.09960       -0.57790       -0.98870
O          1.94890        0.31570       -1.65380
C          1.68380       -1.26970        0.25040
O          2.01400       -0.19060        1.14820
C          0.65550       -0.68470        1.13030
C          0.06580       -1.15260        2.42060
H          0.70950        2.01250        0.34830
H         -0.44940        1.92830       -0.98540
H         -1.01480        1.81050        0.68890
H         -0.99040       -0.47410       -0.28230
H          0.70250       -1.26660       -1.73810
H          2.43020        0.78830       -0.96240
H          2.27160       -2.17740        0.33790
H         -0.23810       -0.30240        3.04140
H         -0.82140       -1.76720        2.23710
H          0.79300       -1.74260        2.98470
