16
gdb 14499	3.7837	2.00096	1.55055	1.1042	71.14	-0.253	0.0359	0.289	836.7539	0.129837	-346.511987	-346.504825	-346.503881	-346.542838	28.625
O         -0.00630        1.38370       -0.07370
C          0.01730       -0.02810       -0.01120
C          0.98240       -0.55480       -0.96970
C          1.82040       -0.91730       -1.75320
C         -0.05520       -0.70530        1.41110
C         -1.48530       -0.09940        1.53150
C         -1.39920       -0.67430        0.08300
C         -0.71520       -1.92460        0.70750
H          0.90090        1.68760       -0.17860
H          2.54760       -1.25100       -2.45180
H          0.73570       -0.71720        2.16250
H         -2.16370       -0.62670        2.20570
H         -1.56050        0.98110        1.63280
H         -2.16160       -0.64790       -0.69610
H         -0.08670       -2.53230        0.05500
H         -1.35700       -2.53960        1.34080
