14
gdb 13159	3.96267	1.57588	1.15209	5.5793	65.02	-0.2672	-0.0481	0.2191	977.539	0.107756	-378.739423	-378.731674	-378.73073	-378.772577	26.162
O         -0.01310       -0.05240        0.30190
C         -0.06320        1.15030        0.13820
C          1.15170        1.99650        0.17810
N          2.11310        2.63670        0.21350
N         -1.18110        1.86040       -0.09340
C         -1.48540        3.28160       -0.31640
C         -2.98510        2.88110       -0.44930
C         -2.56720        1.40110       -0.20460
H         -1.23890        3.92250        0.53530
H         -1.02240        3.69380       -1.21780
H         -3.63350        3.30220        0.31840
H         -3.41770        3.07400       -1.43050
H         -2.72790        0.71120       -1.03830
H         -2.94400        0.93980        0.71310
