15
gdb 15556	3.67248	1.80867	1.37852	4.8088	66.28	-0.274	-0.0081	0.2659	882.2804	0.119701	-362.682914	-362.67564	-362.674696	-362.714587	27.131
O          0.08880        1.41630       -0.03740
C          0.04330        0.00920        0.02160
C          0.60680       -0.54190        1.35610
C         -0.62710       -0.74050        2.20180
C         -1.74060       -0.73640        1.47180
C         -1.42740       -0.54610       -0.00580
C         -2.37050        0.32030       -0.71050
N         -3.14270        0.98950       -1.25000
H         -0.42320        1.77100        0.69930
H          0.60730       -0.33260       -0.84830
H          1.13520       -1.49330        1.20700
H          1.33150        0.16180        1.77770
H         -0.58960       -0.90170        3.27300
H         -2.75140       -0.88290        1.83070
H         -1.43840       -1.52090       -0.51440
