11
gdb 4246	4.18782	2.05836	1.38005	1.9296	55.63	-0.2755	-0.0582	0.2173	793.8273	0.074847	-430.787166	-430.781112	-430.780168	-430.817736	22.081
N         -0.09000        1.31250        0.13970
C          0.02770        0.06180       -0.02600
N         -1.13390       -0.72360       -0.08790
C         -1.19070       -2.07530       -0.26070
O         -2.17600       -2.74580       -0.31380
O          0.06470       -2.67200       -0.38080
C          1.17380       -1.89500       -0.31820
N          1.23660       -0.63800       -0.15780
H          0.83650        1.73560        0.16280
H         -2.01870       -0.24400        0.00430
H          2.06850       -2.50100       -0.42710
