19
gdb 8442	2.71644	2.11598	1.78376	0.645	71.48	-0.2218	0.0774	0.2993	869.328	0.164105	-365.026511	-365.01813	-365.017186	-365.058361	32.679
C         -0.06070        1.53760        0.03030
C          0.10970        0.05150        0.02150
N         -0.77580       -0.86890        0.77710
C          0.69490       -0.90090        1.00370
C          1.26190       -1.79320       -0.10080
C          0.65620       -0.78760       -1.15850
C         -0.34420       -1.33220       -2.16450
O          1.66500       -0.00860       -1.78560
H          0.81190        2.02040       -0.41700
H         -0.94530        1.84120       -0.54220
H         -0.17830        1.91210        1.05330
H         -1.18490       -0.32150        1.53470
H          1.10290       -0.71630        1.99050
H          2.35250       -1.77670       -0.15300
H          0.89060       -2.82150       -0.11320
H         -1.16280       -1.83720       -1.64750
H         -0.75230       -0.52000       -2.77500
H          0.13510       -2.05530       -2.83680
H          2.06920       -0.54870       -2.47290
