10
gdb 3638	9.65334	1.91972	1.60128	2.4093	56.59	-0.2496	-0.0317	0.2179	693.5628	0.066987	-322.135797	-322.130212	-322.129268	-322.165112	20.451
C          0.03120       -1.21180       -0.00440
C         -0.00760       -0.00900        0.00280
C         -0.02790        1.40190        0.01100
C         -1.10030        2.25010        0.02990
O         -0.69700        3.52160        0.03180
N          0.69740        3.56050        0.01360
C          1.07860        2.31160        0.00160
H          0.05860       -2.27310       -0.01080
H         -2.16530        2.08160        0.04290
H          2.13230        2.07410       -0.01360
