18
gdb 12637	3.27723	1.91342	1.38412	1.0658	68.93	-0.2521	0.0069	0.2591	923.5098	0.154021	-384.947594	-384.939462	-384.938518	-384.980202	30.723
C          0.12480        1.62120       -0.02310
C          0.08340        0.08870       -0.00410
C          0.79230       -0.57060       -1.16630
C          1.53670       -1.61240       -0.80270
C          1.49140       -1.84580        0.68400
O          2.77390       -2.02640        1.28480
C          0.74980       -0.57380        1.23570
O          1.68830        0.32070        1.80350
H          1.15400        1.98380        0.00350
H         -0.35780        2.00180       -0.92960
H         -0.39960        2.03950        0.84090
H         -0.97240       -0.21930       -0.02350
H          0.65730       -0.22550       -2.18680
H          2.10630       -2.25580       -1.46470
H          0.93760       -2.75760        0.93700
H          3.36150       -1.38300        0.87130
H         -0.00300       -0.85390        1.98630
H          2.27360       -0.22840        2.34110
