19
gdb 10630	2.46893	1.8814	1.33458	1.5214	78.69	-0.2289	0.0445	0.2734	1016.5293	0.162675	-327.862682	-327.853478	-327.852534	-327.895947	34.193
C          0.04070        1.46790       -0.21140
C         -0.22390       -0.00080        0.13790
C          0.65890       -0.53410        1.26570
C          0.99730       -1.99980        1.29600
N          2.03640       -1.02270        1.03510
C          2.62340       -0.98040       -0.29550
C          0.48860        0.15740        2.52520
C          0.30630        0.73520        3.56400
H          1.05820        1.61390       -0.58710
H         -0.65440        1.81230       -0.98300
H         -0.08470        2.10480        0.66880
H         -1.26680       -0.11990        0.45430
H         -0.10240       -0.62890       -0.74960
H          1.05900       -2.52790        2.24360
H          0.62510       -2.59370        0.46030
H          1.93350       -1.22570       -1.11710
H          3.04210        0.01390       -0.47750
H          3.44570       -1.70260       -0.32540
H          0.16390        1.24170        4.48630
