19
gdb 15404	3.51899	1.13565	0.95189	3.6734	73.64	-0.2491	0.004	0.2531	1267.9794	0.164463	-365.063402	-365.05451	-365.053566	-365.097531	31.463
C         -0.12110        1.38970       -0.35680
C         -0.12340       -0.13540       -0.22590
C         -1.51850       -0.70330        0.07050
C         -1.53870       -2.20420        0.26320
C         -2.79320       -2.99640        0.01650
N         -1.66040       -3.11330       -0.86970
C         -1.68360       -2.79310       -2.21290
O         -2.60730       -3.00830       -2.96070
H          0.88370        1.76900       -0.56500
H         -0.77670        1.71820       -1.17080
H         -0.47370        1.86660        0.56450
H          0.26600       -0.58490       -1.14790
H          0.56530       -0.43860        0.57340
H         -1.90810       -0.23880        0.98660
H         -2.21380       -0.43140       -0.73440
H         -0.86640       -2.57070        1.03910
H         -3.01560       -3.86720        0.62710
H         -3.66130       -2.46630       -0.36820
H         -0.71440       -2.38050       -2.55300
