15
gdb 12631	3.40568	2.0121	1.34727	4.1438	63.86	-0.2191	-0.0217	0.1973	887.8831	0.118615	-399.830336	-399.822426	-399.821482	-399.862721	28.276
C          0.02770        1.45110       -0.00360
N         -0.03590        0.00700       -0.03830
C          0.01090       -0.79080       -1.19540
C          0.06330       -2.09640       -0.91420
C          0.02050       -2.26370        0.58530
O          1.01800       -3.07390        1.16990
C          0.03880       -0.79070        1.09220
O          0.12080       -0.39810        2.23240
H          0.93490        1.82630       -0.49210
H         -0.84520        1.89830       -0.49120
H          0.04190        1.74630        1.04710
H         -0.01060       -0.30030       -2.15970
H          0.08200       -2.90880       -1.62420
H         -0.93130       -2.70700        0.90610
H          1.87590       -2.70670        0.92970
