15
gdb 18814	4.27464	2.18803	1.82721	1.3615	63.15	-0.238	-0.0195	0.2185	733.6893	0.121066	-362.638506	-362.632689	-362.631745	-362.668338	23.421
O         -0.00230        0.02060       -0.19850
C         -0.01730        1.20720       -0.01230
C         -1.26830        2.10010        0.12550
C         -0.71880        3.42100        0.62640
C          0.70340        3.29620        1.02190
C          1.17660        2.14550        0.10120
C          1.01740        3.19330       -1.04450
N          0.32310        4.17050       -0.14170
H         -1.80080        2.15970       -0.82980
H         -1.96000        1.65950        0.85080
H         -1.37160        4.09610        1.16710
H          1.17160        3.66870        1.92480
H          2.13860        1.65820        0.23590
H          1.97700        3.62070       -1.34100
H          0.46110        2.90160       -1.94250
