17
gdb 9533	2.8086	1.91337	1.60992	1.631	65.48	-0.2524	0.0196	0.272	893.2545	0.140682	-400.986161	-400.97769	-400.976746	-401.018989	30.446
C         -0.06500        1.44020       -0.01620
O          0.12680        0.03170        0.01700
C          0.71440       -0.53240       -1.13210
C          2.14240       -0.06640       -1.38920
C          0.47310       -2.05950       -1.14260
O         -0.33820       -1.93480       -2.35500
C         -0.19420       -0.56660       -2.36780
N         -0.66940        0.30310       -3.13710
H          0.88560        1.98640        0.04780
H         -0.59720        1.75130       -0.92190
H         -0.66610        1.68520        0.86220
H          2.74950       -0.21070       -0.49010
H          2.58900       -0.63270       -2.21140
H          2.16600        0.99020       -1.66670
H          1.34250       -2.69680       -1.31670
H         -0.12430       -2.41570       -0.30210
H         -1.27030       -0.11430       -3.85090
