17
gdb 18446	3.28716	1.723	1.405	3.4756	70.	-0.2464	-0.0347	0.2117	929.8775	0.141641	-363.818197	-363.810577	-363.809633	-363.850182	28.443
C         -0.58640        1.51740        0.06140
C         -0.09870        0.08080        0.04390
C          0.95230       -0.45560       -0.97180
C          1.70650       -0.98430        0.25100
C          2.11150        0.08910        1.19950
C          2.60190        1.42990        0.77780
O          3.37420        2.07260        1.44930
N          0.70410       -0.42570        1.22410
H          0.21930        2.25300        0.01280
H         -1.25170        1.69530       -0.79050
H         -1.15690        1.70440        0.97700
H         -0.97580       -0.57340        0.02190
H          0.56370       -1.24580       -1.61610
H          1.47660        0.26980       -1.59870
H          2.10430       -1.98920        0.35440
H          2.62520       -0.24540        2.09660
H          2.26890        1.80410       -0.20980
