16
gdb 2163	3.76539	2.98471	1.75121	3.6417	61.72	-0.2337	0.0377	0.2714	726.7783	0.138617	-325.830752	-325.823815	-325.822871	-325.861628	24.956
C         -0.04200        1.40650        0.13230
N         -0.02110       -0.03220        0.02690
C         -1.19760       -0.80570       -0.32450
C         -0.74370       -2.26570       -0.10700
C          0.78140       -2.20680       -0.28160
C          1.14640       -0.75360        0.02850
O          2.25630       -0.30050        0.22010
H          0.97250        1.73460        0.36550
H         -0.36330        1.87410       -0.80840
H         -0.72330        1.73350        0.92700
H         -2.04900       -0.53160        0.30930
H         -1.49560       -0.61910       -1.36850
H         -0.99280       -2.57690        0.91170
H         -1.23760       -2.95520       -0.79420
H          1.33710       -2.88760        0.36530
H          1.08920       -2.41490       -1.31320
