14
gdb 10869	3.28095	2.02585	1.60157	1.5288	58.35	-0.2519	-0.0254	0.2265	812.2905	0.105067	-419.618876	-419.611554	-419.61061	-419.650264	27.296
C          0.09590        1.44570       -0.03650
C         -0.03310       -0.03240        0.09410
O          0.58330       -0.91820       -0.96860
C          0.03630       -1.91550        0.00110
C          0.60420       -1.01670        1.14040
O          1.98330       -0.95990        1.27960
C         -1.21890       -1.01830       -0.01380
O         -2.39660       -1.05040       -0.16160
H          1.13610        1.75550        0.10440
H         -0.24640        1.77960       -1.01960
H         -0.51550        1.93610        0.72720
H          0.19540       -2.96850       -0.21780
H          0.14890       -1.08310        2.13100
H          2.33730       -0.92570        0.37890
