16
gdb 592	11.38234	1.74877	1.65851	0.9417	57.75	-0.2495	0.0923	0.3419	774.9385	0.142346	-271.606364	-271.599345	-271.598401	-271.637363	24.416
C         -0.13230        1.33670       -0.09410
O         -0.16160       -0.06610       -0.18000
C          0.83030       -0.58150       -1.04480
C          0.76020       -2.08330       -1.03910
C         -0.23330       -2.79350       -1.92030
C          1.23820       -2.85410       -2.24420
H          0.83410        1.70590        0.28680
H         -0.31490        1.81250       -1.07160
H         -0.92220        1.64080        0.59740
H          0.68080       -0.20070       -2.07130
H          1.82900       -0.23960       -0.71980
H          0.95190       -2.52950       -0.06770
H         -0.71480       -3.68520       -1.53530
H         -0.86890       -2.18400       -2.55380
H          1.59300       -2.28980       -3.10070
H          1.76890       -3.78480       -2.07880
