11
gdb 21374	5.60572	2.3605	1.66105	3.5133	57.16	-0.2449	-0.0281	0.2168	681.0558	0.077373	-389.764117	-389.758908	-389.757964	-389.793225	20.126
N         -0.05200        1.35420        0.01020
C          1.28370        1.74680       -0.00050
N          2.15520        0.76930       -0.01450
C          1.35310       -0.35380       -0.01300
N          1.46550       -1.68440       -0.02160
N          0.18180       -2.05510       -0.01120
N         -0.77440       -1.09990        0.00360
C         -0.01000       -0.01750        0.00220
H         -0.85290        1.96130        0.02170
H          1.53950        2.79720        0.00290
H         -0.07430       -3.02860       -0.01410
