16
gdb 11897	4.93453	1.5881	1.34233	1.5609	67.22	-0.2063	0.0578	0.2642	924.6636	0.132135	-379.932267	-379.925063	-379.924119	-379.963847	27.692
N         -0.02580        1.32500       -0.13430
C         -0.07550       -0.04100       -0.06640
N         -1.09760       -0.76090        0.18780
C         -0.65490       -2.12820        0.04640
C         -1.24660       -3.19870        0.92020
C         -1.57690       -3.15260       -0.55740
C          0.84440       -2.06350       -0.28660
O          1.10990       -0.64740       -0.36070
H          0.87780        1.73000        0.05630
H         -0.79890        1.78440        0.32130
H         -0.59340       -3.98990        1.27650
H         -2.01380       -2.89030        1.62110
H         -2.56490       -2.81300       -0.84590
H         -1.14680       -3.91190       -1.20400
H          1.48450       -2.49470        0.49090
H          1.10180       -2.51330       -1.25100
