17
gdb 20093	3.50114	1.63768	1.41334	2.5996	65.07	-0.2324	0.0703	0.3027	931.9073	0.141773	-400.930882	-400.923151	-400.922207	-400.963291	29.246
O          0.12880        1.39630        1.10610
C          0.31710        0.17990        0.44320
C         -0.50890       -0.95800        0.99360
O         -1.27090       -0.70350        2.12520
C         -0.88420       -0.32330       -0.34300
N         -1.97860        0.61040       -0.36240
C         -2.74040        0.75610       -1.59980
C         -3.33850        0.07670       -0.41810
H         -0.69400        1.75820        0.72780
H          1.32950        0.03060        0.08070
H         -0.11140       -1.96890        0.96140
H         -1.00610        0.18330        2.41580
H         -0.71280       -0.91270       -1.24330
H         -3.03030        1.77030       -1.85890
H         -2.44960        0.13590       -2.44510
H         -3.44730       -1.00360       -0.45900
H         -4.06850        0.58860        0.20130
