12
gdb 21712	8.42776	1.16643	1.03333	5.9169	62.61	-0.2384	-0.0375	0.2009	1042.6656	0.084523	-410.806079	-410.799011	-410.798067	-410.837818	24.665
N         -0.00250        1.34440        0.08960
C         -0.07760        0.00760       -0.06340
N         -1.15430       -0.64550        0.19800
C         -1.10340       -2.02070        0.12730
N         -0.03680       -2.77150        0.30290
O         -0.46480       -4.06680        0.16090
N         -1.80830       -4.12460       -0.09270
C         -2.21400       -2.88920       -0.10960
H          0.79040        1.85920       -0.24700
H         -0.82500        1.85170        0.37440
H          0.84440       -0.46570       -0.41460
H         -3.24630       -2.63320       -0.28860
