17
gdb 20304	4.1415	1.79512	1.65042	1.1861	67.15	-0.2264	0.0853	0.3117	842.392	0.143271	-363.778876	-363.771986	-363.771041	-363.810132	26.327
C          0.37160        1.36790        0.12700
O          0.88040        0.27770       -0.65020
C         -0.35480        0.09320        0.03980
C         -0.48090       -0.86060        1.19030
C         -0.08590       -2.28250        1.23810
C          1.24390       -2.56540        0.53900
C          1.85710       -1.49610        1.47290
N          0.53930       -1.25050        2.18180
H          0.93450        1.59380        1.03090
H          0.03260        2.22840       -0.44670
H         -1.22230        0.06090       -0.62420
H         -1.41920       -0.66340        1.71210
H         -0.76640       -3.04450        1.60800
H          1.62010       -3.57070        0.73600
H          1.27670       -2.37550       -0.53560
H          2.55460       -1.91280        2.20220
H          2.29770       -0.61750        1.00470
