18
gdb 5313	4.53951	1.53477	1.26042	1.7418	75.53	-0.1757	0.0543	0.23	999.6836	0.154991	-344.005118	-343.997022	-343.996078	-344.03772	30.278
C          0.05180        1.26480        0.51460
N         -0.03710        0.07390       -0.33010
C          1.21560       -0.66280       -0.37430
C         -1.16740       -0.72950       -0.10280
C         -1.32450       -2.00150        0.40780
C         -2.71580       -2.31440        0.34970
C         -3.36460       -1.23020       -0.18340
N         -2.41540       -0.26920       -0.45600
H          0.82110        1.93580        0.11880
H         -0.90060        1.79960        0.51350
H          0.30510        1.02410        1.56190
H          1.52210       -1.05780        0.61070
H          1.12280       -1.50190       -1.06740
H          2.01060        0.00050       -0.72980
H         -0.53730       -2.62960        0.79330
H         -3.18150       -3.23160        0.67620
H         -4.40780       -1.05180       -0.38740
H         -2.57430        0.58800       -0.95580
