17
gdb 1980	6.95818	1.37685	1.26766	1.8343	60.87	-0.254	0.0759	0.3299	947.1788	0.147771	-346.833271	-346.825496	-346.824551	-346.865288	28.311
O         -0.10840        1.41060       -0.23250
C         -0.01830        0.02500        0.06880
C         -1.41410       -0.55700        0.01080
C         -2.11380       -0.67160       -1.37220
C         -2.66710       -2.04070       -0.93280
O         -2.66320       -3.01650       -1.94880
C         -1.57330       -2.09450        0.17230
H          0.78020        1.77800       -0.23240
H          0.62720       -0.49990       -0.65510
H          0.41270       -0.13960        1.07090
H         -2.05000       -0.01970        0.72180
H         -2.82240        0.10380       -1.66730
H         -1.38100       -0.81220       -2.17320
H         -3.66640       -1.93790       -0.48500
H         -3.04400       -3.82600       -1.59380
H         -0.69500       -2.62710       -0.20790
H         -1.83910       -2.49040        1.15580
