20
gdb 8314	3.74223	1.25674	1.14195	2.4254	72.08	-0.2477	0.079	0.3268	1148.8634	0.176153	-386.12145	-386.112784	-386.11184	-386.154922	32.318
C          0.59690        1.40870        0.56340
C          0.44560       -0.05650        0.19190
O          0.49830       -0.83160        1.37930
C          0.37460       -2.22980        1.16100
C          1.72400       -2.88760        0.74650
C          2.02490       -3.09090        2.26300
O          2.80620       -2.06460        2.83280
C          0.49680       -2.93940        2.52770
H          1.56270        1.58870        1.04490
H          0.53640        2.03520       -0.33140
H         -0.19310        1.71290        1.25570
H         -0.51620       -0.23130       -0.31710
H          1.24060       -0.36230       -0.50570
H         -0.50880       -2.43740        0.54230
H          1.57070       -3.83450        0.22050
H          2.43660       -2.27440        0.18930
H          2.49350       -4.03300        2.55610
H          2.36850       -1.23280        2.60850
H          0.20510       -2.35500        3.40320
H         -0.02370       -3.90070        2.53270
