19
gdb 13560	2.75807	1.52804	1.11282	2.9533	72.44	-0.2463	-0.0212	0.2251	1112.2533	0.163415	-365.05055	-365.041247	-365.040303	-365.085475	32.736
C         -0.02620        1.41210       -0.29930
C          0.10080       -0.05330        0.15660
C          0.81100       -0.11300        1.49560
O          1.87500       -0.63790        1.69760
C         -1.27530       -0.69050        0.28200
N         -1.94740       -1.06110       -0.97360
C         -1.58030       -2.11850       -0.01250
C         -0.56290       -3.14080       -0.45930
H          0.95640        1.86770       -0.45150
H         -0.57990        1.45110       -1.24100
H         -0.56810        2.01330        0.44020
H          0.70690       -0.60950       -0.56170
H          0.26010        0.39730        2.32370
H         -1.89430       -0.22600        1.05150
H         -2.94080       -0.85290       -0.92450
H         -2.39490       -2.53810        0.57780
H          0.19190       -2.69550       -1.11030
H         -0.05760       -3.59140        0.40140
H         -1.05380       -3.94220       -1.02160
