18
gdb 12886	2.5921	2.26418	1.73673	1.507	67.11	-0.2467	0.0741	0.3208	850.6599	0.154063	-384.92671	-384.918963	-384.918018	-384.958207	29.742
C         -0.19180        1.54720       -0.02770
C          0.01750        0.04920        0.06140
C          1.34070       -0.65960       -0.19830
C          2.62390        0.13790       -0.08680
O          2.54660        0.85070        1.15130
C          1.70360        0.13490        2.04580
C          0.73650       -0.66410        1.18120
O          0.22010       -1.84190        1.72300
H          0.66280        2.10020        0.36630
H         -0.34360        1.85390       -1.06860
H         -1.08270        1.84990        0.53420
H         -0.82260       -0.53800       -0.30470
H          1.33530       -1.56120       -0.79920
H          3.48930       -0.54350       -0.09630
H          2.76930        0.88410       -0.87560
H          2.26960       -0.57680        2.66750
H          1.23090        0.87240        2.70520
H         -0.57020       -1.61830        2.22580
