14
gdb 19241	3.25814	2.04281	1.5972	4.2818	61.42	-0.251	0.0174	0.2684	807.4727	0.107951	-378.684829	-378.677786	-378.676841	-378.716157	26.224
N         -0.11390        1.46580        0.22680
C         -0.00960        0.05720        0.01150
C         -1.34250       -0.69670        0.02000
O         -2.08940       -0.22280       -1.10960
C         -1.13140       -1.25510       -1.32380
C          0.24610       -0.58530       -1.46330
C          0.43100        0.34750       -2.55580
N          0.58680        1.13330       -3.39000
H          0.77080        1.93930        0.07990
H         -0.79190        1.86810       -0.41320
H          0.71590       -0.37870        0.70320
H         -1.90720       -1.06910        0.86590
H         -1.47150       -2.17980       -1.77280
H          1.06640       -1.30680       -1.43370
