12
gdb 4991	3.47763	2.40331	1.42117	2.5582	58.75	-0.2388	-0.028	0.2108	784.3253	0.086312	-414.722507	-414.716309	-414.715365	-414.752657	23.727
O          0.07430        1.38330       -0.11540
C          0.05830        0.02920       -0.06470
C         -0.02940       -0.74470       -1.20910
N         -0.04680       -2.08610       -1.17260
C          0.02520       -2.64330        0.02780
N          0.11320       -1.99910        1.20040
C          0.12860       -0.68300        1.14280
O          0.21600        0.03870        2.28220
H          0.14270        1.71670        0.78790
H         -0.08720       -0.26250       -2.18140
H          0.01240       -3.72820        0.07480
H          0.25630       -0.59290        3.01400
