13
gdb 18417	3.48907	1.8511	1.57406	5.1266	62.59	-0.2626	-0.0345	0.2282	815.6306	0.095741	-361.462314	-361.455698	-361.454753	-361.493347	24.604
O          0.01840        0.03350       -0.08640
C          0.01650        1.21910        0.05180
C         -1.11270        2.28150        0.15660
C         -0.02090        3.34720       -0.02930
C          0.97680        3.27260        1.08800
C          0.61770        2.88270        2.42910
N          0.32060        2.58440        3.50610
C          1.08950        2.27610       -0.07050
H         -1.78640        2.19120       -0.69950
H         -1.69520        2.32060        1.07970
H         -0.09820        4.23040       -0.64850
H          1.75540        4.02930        1.05670
H          2.00710        2.21740       -0.64230
