16
gdb 1744	5.30189	1.66512	1.49897	3.1736	61.23	-0.2388	-0.02	0.2188	844.8776	0.135252	-325.762375	-325.754666	-325.753721	-325.79469	27.334
C          0.02250        1.59350       -0.28230
C         -0.04750        0.08690       -0.12950
C         -1.39780       -0.45770        0.32130
C         -1.72890       -0.02970        1.73660
O         -2.75480        0.50440        2.07380
C          0.83100       -0.76010       -0.97640
N          1.10110       -0.62350        0.46770
H          1.01350        1.90870       -0.62420
H         -0.71430        1.94910       -1.01070
H         -0.18630        2.10000        0.66700
H         -2.20490       -0.13930       -0.34530
H         -1.34990       -1.55380        0.31790
H         -0.92410       -0.25360        2.47190
H          0.50370       -1.74770       -1.29030
H          1.49300       -0.26080       -1.67920
H          1.87320        0.02210        0.61480
