14
gdb 13031	4.11617	1.42645	1.11561	5.2845	62.77	-0.2793	0.0067	0.2859	1001.3953	0.107773	-378.729455	-378.722018	-378.721074	-378.762018	26.128
N         -0.04130        1.20370       -0.32400
C         -0.00360       -0.01340       -0.04150
O          1.03240       -0.81520        0.39940
C          0.15100       -1.97270        0.51240
C         -1.03230       -1.13300       -0.01840
C         -2.23490       -0.95550        0.91900
C         -3.26940       -0.08430        0.36450
N         -4.10500        0.57890       -0.07780
H          0.86630        1.65490       -0.20020
H          0.49050       -2.79260       -0.12390
H          0.07270       -2.30450        1.55180
H         -1.36630       -1.42340       -1.01650
H         -2.68740       -1.93370        1.12080
H         -1.90720       -0.54880        1.88220
