14
gdb 7942	3.66144	1.84276	1.27354	1.3634	59.29	-0.2597	-0.0191	0.2406	898.4094	0.108578	-415.907199	-415.900007	-415.899063	-415.93892	26.377
N          0.11760        1.39950        0.35850
C         -0.06240        0.02260       -0.06100
C         -1.52040       -0.41430       -0.24050
C         -1.45180       -1.43340       -1.35180
N         -2.31220       -2.29940       -1.64190
O         -0.25840       -1.26250       -2.05270
C          0.56070       -0.35120       -1.41520
O          1.57690        0.03970       -1.90020
H          1.11170        1.60690        0.40430
H         -0.26450        2.02720       -0.34480
H          0.42560       -0.62350        0.68120
H         -1.98910       -0.82880        0.65100
H         -2.13050        0.43510       -0.57140
H         -2.02080       -2.85470       -2.44800
