18
gdb 9692	4.1235	1.24223	1.17041	2.4021	64.5	-0.2353	0.0655	0.3008	1087.756	0.151338	-422.036365	-422.02724	-422.026296	-422.070107	33.029
C          0.01650        0.97380        0.43830
O         -0.13620       -0.14850       -0.42070
C         -1.40200       -0.73460       -0.30790
C         -1.51310       -2.14640       -0.82310
C         -1.50600       -1.88250        0.66770
O         -0.34820       -2.20100        1.39450
C         -2.72580       -2.12140        1.51620
O         -2.86860       -3.48530        1.87210
H          1.02740        1.35780        0.28480
H         -0.70700        1.76290        0.18930
H         -0.11350        0.69560        1.49230
H         -2.23520       -0.04380       -0.44270
H         -2.43760       -2.44730       -1.30320
H         -0.61290       -2.57590       -1.25030
H          0.39060       -1.77460        0.94040
H         -2.66490       -1.48110        2.41110
H         -3.62890       -1.84290        0.96370
H         -2.02210       -3.75700        2.24470
