10
gdb 23682	4.1808	2.01692	1.36056	1.0952	49.74	-0.295	-0.0555	0.2396	776.6782	0.06283	-454.815631	-454.810069	-454.809125	-454.845564	20.415
O          0.10890        1.28900       -0.08510
C          0.06940       -0.03710       -0.04920
N          0.00790       -0.66090       -1.22580
C         -0.02910       -1.98430       -1.12160
N         -0.01010       -2.69730        0.00890
C          0.05250       -1.93930        1.08910
F          0.07360       -2.56780        2.24010
N          0.09490       -0.62280        1.15360
H          0.15150        1.59770        0.83180
H         -0.07990       -2.54770       -2.04970
