11
gdb 685	8.52805	3.52052	2.89772	2.1794	47.14	-0.2495	-0.0245	0.225	458.1637	0.085331	-285.25588	-285.251056	-285.250112	-285.28391	17.9
O          0.02610        0.02450       -0.02400
C          0.01830        1.21600        0.07810
C         -1.08480        2.29800        0.06380
N         -0.03300        3.35270       -0.17550
C          0.80090        3.32550        1.01650
C          1.06130        2.28830       -0.02870
H         -1.73490        2.18600       -0.80790
H         -1.69060        2.45780        0.96010
H          1.52100        4.13620        1.07210
H          0.36370        3.03470        1.96980
H          1.96770        2.27220       -0.62290
