24
gdb 8709	2.35945	1.56594	1.2321	1.3198	80.81	-0.2633	0.0684	0.3317	1155.6775	0.221202	-351.411872	-351.40113	-351.400186	-351.447047	39.51
C         -0.08320        1.54160        0.18650
C          0.03710        0.01940        0.05370
C          0.71920       -0.51490       -1.23220
C          0.76560       -2.05360       -1.15270
C         -0.00570       -0.05840       -2.52330
C         -1.48000       -0.45820       -2.65180
C          2.16400        0.00840       -1.32820
O          2.86840       -0.32420       -0.13840
H          0.89830        2.02510        0.20640
H         -0.66160        1.98790       -0.62900
H         -0.58910        1.80010        1.12240
H          0.60210       -0.36280        0.90950
H         -0.96170       -0.42710        0.12480
H         -0.22810       -2.48000       -0.98580
H          1.16380       -2.48390       -2.07920
H          1.41140       -2.37010       -0.33000
H          0.07230        1.03250       -2.61140
H          0.54440       -0.46510       -3.38270
H         -1.61440       -1.54360       -2.61750
H         -2.09350       -0.02200       -1.85750
H         -1.88550       -0.10860       -3.60660
H          2.64830       -0.44340       -2.20900
H          2.15610        1.09800       -1.48410
H          3.77690       -0.02560       -0.23340
