15
gdb 7926	3.48188	1.89508	1.33134	0.966	64.34	-0.2364	-0.0013	0.2351	899.4669	0.120509	-396.04591	-396.0384	-396.037456	-396.077723	27.959
C          0.01490        1.55470       -0.02550
C         -0.00030        0.02250       -0.00920
N          0.70880       -0.61310       -1.10700
C          1.84980       -1.27150       -0.70040
N          2.72230       -1.76210       -1.48320
N          1.79570       -1.26670        0.70620
C          0.74860       -0.52920        1.21450
O          0.48780       -0.34160        2.37680
H          1.03980        1.93500       -0.07150
H         -0.53690        1.93690       -0.88960
H         -0.45900        1.93260        0.88400
H         -1.03950       -0.32710        0.04640
H          0.68700       -0.25040       -2.04570
H          3.47660       -2.21350       -0.97240
H          2.47210       -1.73030        1.29100
