17
gdb 13301	4.91926	1.28838	1.13587	4.0279	72.91	-0.2514	0.0148	0.2662	1047.2244	0.143821	-326.758998	-326.751571	-326.750627	-326.791169	27.593
N         -0.30930       -0.97250       -0.46060
C         -0.16240        0.16410       -0.31030
C          0.04650        1.59710       -0.11400
C          1.52210        1.96260        0.17230
C          2.43320        1.63300       -1.04370
C          2.57470        2.96330       -1.74380
C          2.15330        3.97420       -0.98620
C          1.65340        3.50110        0.35860
H         -0.29530        2.12740       -1.01110
H         -0.59060        1.92700        0.71420
H          1.83810        1.42110        1.06700
H          3.41280        1.25880       -0.71720
H          2.00870        0.84780       -1.67980
H          3.00400        3.05760       -2.73480
H          2.18590        5.02270       -1.25990
H          0.70520        3.96710        0.65450
H          2.37240        3.74660        1.15190
