14
gdb 652	7.23422	3.33967	3.08029	1.993	53.28	-0.2338	0.0894	0.3232	501.501	0.120022	-270.359564	-270.354228	-270.353283	-270.387995	20.486
C         -0.16150        1.61260       -0.00140
C          0.02360        0.10470        0.03240
C          1.18360       -0.63870       -0.69420
C          2.19900       -0.13710        0.36040
C          0.91780       -0.63170        1.07370
O          0.91800       -1.80990        0.17440
H          0.77060        2.16630        0.13600
H         -0.59370        1.92190       -0.95920
H         -0.85490        1.92900        0.78530
H         -0.92360       -0.42350       -0.10790
H          1.32710       -0.82790       -1.75900
H          3.06940       -0.78020        0.49380
H          2.45200        0.92400        0.39430
H          0.74160       -0.81250        2.13500
