12
gdb 4332	3.8973	2.03476	1.33682	4.5127	59.39	-0.2396	-0.043	0.1967	825.1048	0.086901	-414.743421	-414.737356	-414.736412	-414.773689	23.199
O         -0.04550        1.31730        0.00990
C         -0.00200       -0.02120        0.00280
N          1.16890       -0.59540       -0.00680
C          1.26360       -1.97000       -0.01440
O          2.29250       -2.60740       -0.02350
N          0.02020       -2.66440       -0.01100
C         -1.18500       -2.05220       -0.00100
C         -1.25930       -0.69670        0.00640
H          0.87780        1.61370        0.00620
H          0.09850       -3.67060       -0.01660
H         -2.05770       -2.69520        0.00060
H         -2.19450       -0.15890        0.01450
