18
gdb 16555	2.99193	2.64542	2.15595	1.557	70.4	-0.2339	0.0128	0.2467	745.4598	0.157693	-347.818347	-347.812335	-347.811391	-347.847985	25.465
C         -0.00800        1.52150        0.13040
C          1.41770        2.10370       -0.02190
C          2.17840        1.37580       -1.15230
O          2.21570       -0.01230       -0.80230
C          0.90490       -0.47230       -1.14970
C         -0.04470       -0.01840       -0.01890
C          0.62460        0.27450       -2.44730
C          1.37910        1.36930       -2.44890
H         -0.43020        1.81380        1.09720
H         -0.65340        1.96510       -0.63390
H          1.36960        3.18330       -0.20760
H          1.99240        1.95670        0.89940
H          3.20670        1.73610       -1.24900
H          0.93410       -1.56170       -1.24440
H          0.29850       -0.50130        0.90290
H         -1.07090       -0.35820       -0.20260
H         -0.12240       -0.01970       -3.17320
H          1.38720        2.17070       -3.17630
