13
gdb 3965	5.29942	1.56486	1.20812	1.1191	67.42	-0.198	-0.0184	0.1797	912.1028	0.09696	-398.579695	-398.573169	-398.572225	-398.610316	24.876
O         -0.09690        1.35380        0.11190
N          0.05400       -0.04700        0.06990
C         -1.09330       -0.63020       -0.04920
C         -2.40040        0.00940       -0.13410
C         -3.50610       -0.73680       -0.25610
O         -3.51520       -2.09530       -0.30990
C         -2.30500       -2.72330       -0.23270
C         -1.13780       -2.08070       -0.10960
H          0.81460        1.64950        0.20000
H         -2.47840        1.08590       -0.09860
H         -4.51140       -0.34090       -0.32500
H         -2.42040       -3.79750       -0.28430
H         -0.21400       -2.64250       -0.05390
