20
gdb 8427	3.5614	1.73016	1.71953	1.7746	73.42	-0.255	0.0857	0.3407	897.5102	0.177412	-349.010187	-349.002522	-349.001578	-349.041401	30.783
C          0.43740        1.28200        0.03120
C         -0.13200       -0.14800       -0.00340
C         -1.66400       -0.08320       -0.07350
C          0.45700       -0.93950       -1.21760
C          1.61940       -1.73660       -0.66660
O          2.54370       -0.96380        0.11480
C          1.55200       -1.74520        0.79900
C          0.34340       -0.95410        1.25030
H          1.52770        1.26520        0.08120
H          0.14010        1.83950       -0.86450
H          0.05890        1.82910        0.90230
H         -1.99470        0.45280       -0.97030
H         -2.10700       -1.08490       -0.09980
H         -2.07580        0.44240        0.79540
H         -0.28280       -1.64020       -1.62540
H          0.75440       -0.27250       -2.03380
H          2.06620       -2.54240       -1.24460
H          1.94430       -2.55790        1.40610
H          0.56420       -0.29690        2.09810
H         -0.43020       -1.65910        1.58010
