16
gdb 13201	5.79082	1.14242	1.11441	2.9118	61.64	-0.2511	-0.0006	0.2505	1097.9906	0.129904	-420.881548	-420.873224	-420.87228	-420.916358	27.825
C          0.11370        1.43620        0.03780
O          0.32740        0.01760        0.03170
C          0.26220       -0.56830       -1.17970
O          0.04330        0.03080       -2.20390
C          0.49190       -2.05430       -1.09060
C         -0.55090       -2.94410       -1.81700
O          0.46250       -3.56140       -2.62990
C          1.46480       -2.65330       -2.13850
H          0.86390        1.94050       -0.57640
H         -0.87800        1.67700       -0.35310
H          0.20050        1.74480        1.07940
H          0.69700       -2.35500       -0.06470
H         -1.07880       -3.66990       -1.18900
H         -1.27060       -2.37550       -2.41750
H          1.77950       -1.93440       -2.90380
H          2.33770       -3.17790       -1.73520
