17
gdb 11587	5.90578	0.94907	0.86453	2.5653	66.79	-0.2678	0.0311	0.2989	1323.8393	0.140505	-400.979435	-400.97079	-400.969846	-401.013673	30.04
C         -0.20060        1.39260        0.17520
C          0.09100       -0.06920       -0.00600
N          1.27450       -0.51240       -0.11010
O         -1.07830       -0.77230       -0.03330
C         -1.00850       -2.18330       -0.19990
C         -2.41540       -2.71100       -0.22290
C         -2.70990       -4.09060        0.18030
O         -3.01820       -2.99310        1.03840
H          0.73360        1.95170        0.19490
H         -0.83370        1.75600       -0.64020
H         -0.74980        1.55380        1.10790
H          1.31410       -1.52410       -0.22330
H         -0.49960       -2.42670       -1.14410
H         -0.45350       -2.64380        0.62760
H         -3.07500       -2.22170       -0.93960
H         -3.56390       -4.60570       -0.25610
H         -1.90300       -4.73850        0.52140
