19
gdb 13110	4.305	1.06518	0.90624	2.5443	73.09	-0.2416	-0.0232	0.2184	1305.4731	0.164604	-365.062221	-365.053472	-365.052527	-365.096209	31.37
C          0.01870        1.53840        0.20840
C         -0.07230        0.03040       -0.03890
C          0.86910       -0.45070       -1.14820
C          0.75610       -1.94700       -1.41570
N         -0.51070       -2.39890       -2.06920
C          0.20840       -3.15830       -3.12750
C          1.51460       -2.52080       -2.62650
O          2.63860       -2.45740       -3.02410
H          1.03270        1.83150        0.50230
H         -0.23910        2.10240       -0.69460
H         -0.66350        1.85380        1.00400
H          0.15600       -0.50990        0.89000
H         -1.10070       -0.23870       -0.30940
H          0.64910        0.08850       -2.07770
H          1.91170       -0.22690       -0.88760
H          1.01000       -2.51360       -0.50490
H         -1.09150       -2.98060       -1.47760
H          0.21370       -4.25170       -3.01590
H         -0.09230       -2.91380       -4.15220
