14
gdb 18636	3.32739	2.06613	1.78266	2.792	57.33	-0.2494	-0.0268	0.2225	768.4236	0.106935	-419.666719	-419.659905	-419.658961	-419.697912	25.528
O          0.08760        1.31280       -0.19230
C         -0.01850       -0.06430       -0.06570
C         -0.44130       -0.64320        1.23740
O         -0.92060        0.33510        2.14200
C         -2.21180        0.79250        1.73930
C         -2.56210        0.09070        0.42130
O         -3.61580        0.17780       -0.15280
C         -1.39190       -0.76220        0.06300
H          0.16700        1.66490        0.70470
H          0.69420       -0.61460       -0.67430
H          0.05130       -1.47770        1.72370
H         -2.95450        0.53720        2.50460
H         -2.20940        1.87980        1.60310
H         -1.56460       -1.67020       -0.49940
