14
gdb 5594	3.51517	1.92948	1.25555	1.4819	60.28	-0.1761	0.0412	0.2173	910.9478	0.107507	-415.876406	-415.86849	-415.867545	-415.909689	27.776
C         -0.02430        1.39020        0.03810
O          0.00310       -0.03030        0.07140
C         -1.21220       -0.63720        0.04790
C         -1.38980       -1.99650        0.07330
O         -0.54720       -3.05930        0.12320
N         -2.74990       -2.18570        0.03610
C         -3.32620       -0.94640       -0.00980
N         -2.41600        0.00520       -0.00350
H          1.01860        1.71150        0.06290
H         -0.50730        1.75780       -0.87380
H         -0.56200        1.79830        0.90090
H          0.34990       -2.70780        0.14240
H         -3.21090       -3.08000        0.04170
H         -4.39440       -0.80550       -0.04560
