14
gdb 4233	3.38448	2.38617	1.93047	2.0582	46.27	-0.3436	0.0861	0.4298	708.6624	0.108875	-456.105229	-456.097706	-456.096761	-456.13687	26.861
C         -0.01930        1.55620        0.03180
C         -0.03780        0.02360       -0.00430
C         -1.46140       -0.54450        0.03510
C          0.70310       -0.48700       -1.23200
F          1.97350       -0.04900       -1.26230
F          0.74980       -1.83010       -1.26000
F          0.11820       -0.08660       -2.37440
H          1.00250        1.94280        0.01430
H         -0.55680        1.97120       -0.82620
H         -0.50630        1.91480        0.94260
H          0.52880       -0.36410        0.85100
H         -2.04290       -0.19440       -0.82320
H         -1.45490       -1.63690        0.02050
H         -1.96990       -0.21630        0.94550
