22
gdb 9281	5.28092	0.73496	0.68266	2.8927	80.25	-0.247	-0.0177	0.2293	1681.561	0.197503	-350.227528	-350.217169	-350.216225	-350.264017	36.013
C         -0.08780        1.55590        0.14230
C          0.01380        0.03340        0.00240
C          0.77220       -0.45480       -1.24790
C          2.24670       -0.02750       -1.22700
C          0.61690       -1.98260       -1.38450
C          1.13230       -2.56690       -2.71290
C          0.95860       -4.06660       -2.75960
O          0.33890       -4.66940       -3.59770
H          0.89150        2.02410        0.27850
H         -0.55080        2.00380       -0.74430
H         -0.70120        1.82590        1.00760
H          0.49370       -0.38650        0.89750
H         -1.00000       -0.38590       -0.02130
H          0.29540        0.00690       -2.12570
H          2.77510       -0.33430       -2.13440
H          2.34840        1.05830       -1.15110
H          2.76780       -0.47190       -0.36990
H          1.13170       -2.47320       -0.54620
H         -0.44520       -2.23840       -1.28290
H          0.61490       -2.12830       -3.57160
H          2.20650       -2.36300       -2.81860
H          1.45940       -4.60820       -1.92130
