16
gdb 17251	4.56014	1.67811	1.63051	1.9913	63.61	-0.2356	0.0664	0.302	842.3963	0.130826	-383.663135	-383.656336	-383.655392	-383.69428	26.307
O          0.00280        1.35240       -0.37530
C         -0.07680        0.03600        0.14810
C         -1.45130       -0.53090        0.03970
O         -2.48310        0.05530        0.84770
C         -3.30400       -1.08990        0.47850
C         -3.61620       -0.84560       -1.02050
C         -2.12170       -1.08680       -1.23070
C         -2.02390       -1.90720        0.05740
H         -0.67310        1.87240        0.07330
H          0.61880       -0.57890       -0.43270
H          0.24640        0.00440        1.20020
H         -4.05960       -1.34000        1.21990
H         -4.21660       -1.65360       -1.44630
H         -4.04310        0.12960       -1.27440
H         -1.57530       -1.22460       -2.15480
H         -1.62900       -2.88650        0.28920
