20
gdb 12108	4.13284	1.28116	1.19004	0.8352	75.47	-0.2327	0.0822	0.315	1105.2481	0.177042	-345.126415	-345.117968	-345.117024	-345.159506	31.681
C          0.28880        1.48700        0.79040
C          0.00090        0.10410        0.24580
C         -1.24140       -0.56650        0.80600
N         -2.43930        0.22070        0.52900
C         -3.17470       -0.11010       -0.68710
C         -3.71350       -0.47440        0.65250
C          0.45640       -0.24030       -1.12660
N          1.12270       -0.83270        0.05070
H          1.15810        1.93480        0.29770
H         -0.57350        2.14260        0.64320
H          0.49160        1.44400        1.86740
H         -1.30410       -1.59290        0.40670
H         -1.14280       -0.64950        1.89630
H         -3.58470        0.73070       -1.23940
H         -2.79890       -0.92270       -1.30680
H         -3.69500       -1.52940        0.92300
H         -4.52390        0.09540        1.09840
H         -0.10350       -0.94650       -1.73400
H          0.98220        0.52190       -1.69590
H          2.00260       -0.35150        0.22210
