18
gdb 9362	7.89773	0.73183	0.68105	2.8751	65.54	-0.2662	0.0179	0.2842	1612.8018	0.151366	-422.10673	-422.096838	-422.095894	-422.143015	32.81
C          0.09300        1.34750        0.00760
O         -0.04030       -0.07880        0.00090
C         -1.30950       -0.53940        0.01210
O         -2.27750        0.17780        0.02660
C         -1.32610       -2.05450        0.00390
C         -2.73940       -2.63300        0.01380
C         -2.73730       -4.15570        0.00600
O         -4.08700       -4.59110        0.01600
H          1.16490        1.54610       -0.00260
H         -0.38520        1.78500       -0.87250
H         -0.36640        1.77490        0.90270
H         -0.76100       -2.38880       -0.87530
H         -0.74520       -2.39810        0.86920
H         -3.28240       -2.27990        0.89590
H         -3.29830       -2.27100       -0.85470
H         -2.20510       -4.52410       -0.88730
H         -2.18900       -4.53310        0.88570
H         -4.09400       -5.55260        0.01090
