17
gdb 16486	2.86415	2.6084	1.77314	1.5536	67.48	-0.2421	0.0653	0.3074	796.7818	0.142748	-363.808458	-363.801303	-363.800359	-363.839344	27.878
C         -0.06710        1.46110       -0.01590
C          0.08410       -0.02510        0.07500
C          0.83790       -0.84380       -0.92390
C          1.08870       -2.23110       -0.36040
C         -0.30970       -2.05130        0.25180
C         -0.17650       -0.90400        1.27800
O          0.82970       -0.93590        2.26370
N         -0.66160       -0.98340       -0.83300
H          0.74860        1.96450        0.51410
H         -0.05040        1.79000       -1.05930
H         -1.01450        1.78800        0.42550
H          1.30060       -0.37880       -1.78780
H          1.08470       -2.98400       -1.15240
H          1.92980       -2.38850        0.31990
H         -0.98370       -2.89040        0.41530
H         -1.15860       -0.65970        1.70560
H          0.48930       -1.39600        3.03730
