11
gdb 985	3.74627	3.5992	1.83563	1.6377	48.07	-0.1804	0.0395	0.2198	620.4427	0.0793	-376.599676	-376.593189	-376.592245	-376.629756	23.364
O          0.06680        1.38310        0.25490
C          0.06260        0.04330        0.03330
C          0.11750       -0.74780       -1.08170
O          0.19930       -0.30600       -2.36740
N          0.08020       -2.06870       -0.74070
C          0.00280       -2.09510        0.57370
N         -0.01100       -0.83170        1.09360
H          0.12910        1.81710       -0.60280
H          0.21840       -1.09280       -2.92390
H         -0.04540       -2.97710        1.19150
H         -0.06310       -0.56400        2.06200
