12
gdb 450	7.26973	3.57574	2.54917	4.3159	45.82	-0.2646	0.0149	0.2795	499.82	0.098309	-306.418503	-306.413341	-306.412397	-306.447148	18.482
O          0.03000        0.00370        0.23280
C         -0.04040        1.19530        0.16530
C         -1.28550        2.07300        0.06100
C         -0.77220        3.46840        0.42640
C          0.70740        3.37530        0.01840
O          1.06610        1.99200        0.16390
H         -1.64470        2.02290       -0.97360
H         -2.07670        1.68480        0.70290
H         -1.29160        4.28230       -0.08280
H         -0.85530        3.63550        1.50440
H          0.86360        3.66870       -1.02690
H          1.37750        3.96270        0.64930
