20
gdb 10880	2.62966	1.91635	1.65458	1.566	75.3	-0.2466	0.0736	0.3202	933.1446	0.176303	-348.960266	-348.951875	-348.95093	-348.992354	32.518
C         -0.15570        1.56110       -0.04910
C          0.03530        0.05060       -0.01260
C          1.21670       -0.65770       -0.75400
C          2.15410       -0.16200        0.38190
C          0.87170       -0.65550        1.11970
C          0.59080       -0.66400        2.59830
C          0.96110       -1.89450        0.16150
O         -0.11740       -2.76670       -0.02720
H          0.76810        2.12370        0.10430
H         -0.57150        1.86940       -1.01480
H         -0.86580        1.87510        0.72440
H         -0.94690       -0.40910       -0.18840
H          1.42100       -0.65490       -1.82590
H          3.06410       -0.74570        0.55170
H          2.37010        0.90480        0.41850
H          0.51910        0.35240        3.00130
H         -0.35310       -1.17860        2.81040
H          1.38370       -1.18570        3.14550
H          1.83120       -2.53630        0.32500
H         -0.90790       -2.25950       -0.23690
