16
gdb 3552	5.06664	2.91608	2.59939	1.5946	63.17	-0.2211	0.0927	0.3138	606.5433	0.138405	-288.561991	-288.55626	-288.555315	-288.591099	23.076
C         -0.04250        1.59730        0.02530
C          0.08560        0.08580       -0.05100
C          0.80810       -0.62410       -1.18690
C          2.29350       -0.70160       -0.76850
C          2.37790       -0.04530        0.59730
N          1.01730       -0.62810        0.93080
C          1.27770       -1.64980       -0.20310
H          0.86880        2.11710       -0.27960
H         -0.84890        1.93420       -0.63490
H         -0.29410        1.90570        1.04610
H         -0.89890       -0.36960        0.10170
H          0.51130       -0.77270       -2.21840
H          3.06840       -0.90620       -1.49720
H          3.12290       -0.52370        1.23880
H          2.46420        1.04140        0.69390
H          1.19370       -2.72360       -0.11950
