18
gdb 16943	3.8182	2.02335	1.8558	0.3016	75.94	-0.2112	0.0045	0.2157	817.5113	0.156088	-310.666194	-310.659693	-310.658748	-310.696383	26.941
C         -0.03250        1.49910        0.04210
C         -0.04740        0.01030       -0.03200
C         -0.06890       -0.80140       -1.09130
C          0.02090       -2.25030       -0.57200
C         -0.83960       -2.08040        0.71650
C          0.04990       -0.90370        1.21600
C          1.41840       -1.61360        1.16280
C          1.40110       -2.41650        0.09910
H          0.89370        1.86180        0.50860
H         -0.11020        1.95350       -0.94990
H         -0.85810        1.88040        0.65690
H         -0.07780       -0.52380       -2.13740
H         -0.26560       -3.03060       -1.27670
H         -1.87210       -1.78560        0.50860
H         -0.81180       -2.95240        1.37620
H         -0.20810       -0.43260        2.16530
H          2.23200       -1.42770        1.85100
H          2.19890       -3.03770       -0.28570
