18
gdb 18241	4.16556	1.50797	1.27964	1.8274	73.3	-0.2344	0.0092	0.2435	1010.5399	0.154189	-347.799384	-347.791873	-347.790929	-347.831383	28.515
C         -0.21590        1.54200       -0.03550
C          0.08940        0.03410        0.01660
C          0.78780       -0.47260       -1.21000
C          2.01940       -0.98990       -1.29950
C          2.39710       -1.38590       -2.71240
C          1.12520       -1.08940       -3.49830
O         -0.01210       -1.84860       -3.08420
C          0.14610       -0.50480       -2.56760
H          0.70610        2.12380       -0.13080
H         -0.85810        1.79330       -0.88600
H         -0.73120        1.86510        0.87420
H          0.70500       -0.18240        0.89660
H         -0.85290       -0.51420        0.15170
H          2.67970       -1.15850       -0.45500
H          3.24250       -0.79780       -3.09350
H          2.68360       -2.44190       -2.78970
H          1.16450       -0.84770       -4.55720
H         -0.63400        0.19090       -2.86330
