19
gdb 20300	4.62684	1.47042	1.43258	1.0498	76.26	-0.2332	0.0893	0.3225	969.3212	0.166859	-327.858997	-327.851848	-327.850904	-327.890523	27.947
C          0.52300        1.70940        0.19720
C          1.03300        0.41500       -0.33470
N         -0.32500        0.52220        0.18770
C         -0.57520       -0.09900        1.45960
C         -1.91940       -0.01260        2.12030
C         -3.04400       -0.01580        1.07620
C         -2.50910       -1.37310        0.51850
C         -1.39100       -1.35330        1.56960
H          0.91800        2.04480        1.15500
H          0.22930        2.50840       -0.47780
H          1.11860        0.25140       -1.40530
H          1.76930       -0.11550        0.26730
H          0.25580       -0.06440        2.17250
H         -2.01900        0.31870        3.14790
H         -4.03300       -0.11670        1.52840
H         -3.05010        0.82820        0.38240
H         -3.21550       -2.19090        0.67570
H         -2.18080       -1.37660       -0.52350
H         -1.01890       -2.21930        2.10530
