13
gdb 7016	8.34164	0.92151	0.84803	1.3873	62.29	-0.2751	-0.033	0.242	1250.6766	0.092348	-398.584168	-398.575833	-398.574888	-398.617815	28.504
N         -0.01540        1.57220       -0.18460
C          0.02790        0.31620       -0.16690
C         -1.15610       -0.58360        0.10600
C         -2.42250        0.10240        0.29760
C         -3.48620        0.63260        0.46220
O          1.14360       -0.48040       -0.42800
C          2.35750       -0.11210        0.08050
O          3.36110       -0.67500       -0.21930
H          0.87340        2.00230       -0.43840
H         -1.22100       -1.29490       -0.72840
H         -0.91090       -1.19850        0.98270
H         -4.42060        1.11680        0.60380
H          2.27820        0.72220        0.79760
