19
gdb 8594	4.12401	1.92592	1.75232	1.1877	77.29	-0.2031	0.084	0.2871	844.5003	0.166003	-327.789568	-327.78269	-327.781746	-327.820076	28.392
C         -0.19060        1.63210       -0.15520
C         -0.01650        0.11880       -0.03330
C          0.96720       -0.62450       -1.03380
C          1.86290       -0.80420        0.20430
C          2.51690       -1.64600        1.33970
C          1.95450       -0.28570        1.94530
C          2.62500        0.44670        0.77640
N          0.69900       -0.60190        1.12340
H          0.72320        2.17130       -0.41170
H         -0.92470        1.84670       -0.94070
H         -0.58210        2.04620        0.78000
H         -1.01900       -0.31770       -0.04750
H          0.53650       -1.55030       -1.42060
H          1.38600       -0.03760       -1.85470
H          1.96650       -2.54230        1.62420
H          3.60240       -1.77300        1.35850
H          1.92200       -0.01090        3.00290
H          3.71850        0.42830        0.73420
H          2.24270        1.43300        0.53020
