12
gdb 335	5.76079	2.56761	1.90777	2.3065	52.76	-0.2536	-0.0324	0.2213	632.3767	0.093434	-269.207716	-269.20074	-269.199796	-269.238596	23.743
C          0.03780        1.51570        0.01260
C         -0.03210       -0.03070       -0.02390
C          0.71280       -0.58170        1.19760
O          1.81000       -1.06610        1.15240
C         -1.40730       -0.51460       -0.01930
C         -2.53790       -0.92010        0.03030
H          1.07910        1.84540       -0.03380
H         -0.50570        1.93480       -0.83710
H         -0.41510        1.90340        0.92990
H          0.49910       -0.39690       -0.90910
H          0.15460       -0.46890        2.15360
H         -3.53620       -1.28190        0.05370
