18
gdb 7246	4.58859	1.07237	0.99567	2.7063	74.36	-0.2444	-0.015	0.2294	1234.8787	0.149748	-347.795044	-347.785312	-347.784368	-347.830221	34.294
C         -0.14470        1.55550       -0.02150
C         -0.03010        0.01710        0.03120
C          0.86110       -0.43870        1.19100
C         -1.44090       -0.56290        0.16490
O         -1.98070       -0.70740        1.23200
C         -2.12390       -0.93020       -1.16590
C         -3.53210       -1.26710       -1.06160
C         -4.69790       -1.54190       -0.97920
H          0.84510        2.00360       -0.14960
H         -0.77530        1.89440       -0.84980
H         -0.57610        1.93540        0.90960
H          0.39590       -0.32560       -0.92060
H          0.40700       -0.16260        2.14570
H          0.99550       -1.52460        1.18780
H          1.84860        0.02740        1.12240
H         -1.96870       -0.10460       -1.87350
H         -1.55440       -1.77260       -1.58610
H         -5.72830       -1.78460       -0.89800
