16
gdb 23889	3.16448	1.40313	1.22022	0.9193	53.59	-0.2572	0.0788	0.336	1020.4129	0.126621	-511.437536	-511.428809	-511.427865	-511.471093	31.242
C         -0.07390        1.57130        0.03580
C          0.04340        0.04610        0.02250
C          0.76540       -0.48370       -1.22440
N          2.15010       -0.02770       -1.26150
C          0.65550       -2.00920       -1.30680
F         -0.61970       -2.42400       -1.36140
F          1.27490       -2.47870       -2.40540
F          1.22980       -2.60320       -0.24490
H          0.91120        2.03770       -0.03840
H         -0.67710        1.92680       -0.80690
H         -0.55370        1.91470        0.95680
H          0.58710       -0.29990        0.91060
H         -0.94980       -0.41140        0.07100
H          0.25940       -0.10540       -2.12150
H          2.66080       -0.42960       -0.47950
H          2.60480       -0.35930       -2.10660
