18
gdb 16489	2.73034	2.58442	1.74086	1.1156	70.62	-0.2367	0.077	0.3137	821.2645	0.153967	-347.750439	-347.743235	-347.742291	-347.781262	28.947
C         -0.02060        1.62020       -0.06860
C          0.07620        0.10110       -0.00700
C          1.12470       -0.69450       -0.85550
C          2.51720       -0.13740       -0.44280
C          2.22580       -0.74130        0.92720
C          1.23260       -1.72950        0.33780
C          0.70710       -0.61340        1.18780
O          0.17820       -0.74990        2.45680
H          0.93630        2.10530        0.14590
H         -0.35460        1.95680       -1.05650
H         -0.74800        1.98690        0.66440
H         -0.91010       -0.34440       -0.18400
H          0.90560       -0.94170       -1.89210
H          3.32200       -0.67830       -0.94960
H          2.69390        0.93990       -0.53490
H          2.89910       -0.91360        1.75810
H          1.14410       -2.80310        0.41010
H          0.46130        0.00320        2.98670
