16
gdb 1286	8.35565	1.1159	1.00354	2.5104	58.21	-0.2476	0.0319	0.2795	1129.7357	0.134737	-362.938449	-362.92947	-362.928526	-362.973821	29.405
C         -0.03970        1.36450       -0.04420
O         -0.01400       -0.04140        0.00250
C          0.68300       -0.53500        1.12700
C          0.63750       -2.05470        1.06810
C          1.34210       -2.69340        2.25970
N          1.45870       -4.05270        2.19060
O          1.77520       -2.05110        3.19760
H          0.97450        1.79090       -0.10380
H         -0.59680        1.65340       -0.93890
H         -0.53780        1.79450        0.83940
H          1.72670       -0.18410        1.12810
H          0.22830       -0.17880        2.06320
H         -0.40790       -2.38680        1.04540
H          1.09120       -2.40470        0.13350
H          1.03360       -4.59100        1.45640
H          1.85040       -4.53660        2.98170
