17
gdb 12148	5.91215	1.29831	1.27829	1.4782	68.95	-0.244	0.0623	0.3063	993.7982	0.141952	-363.796845	-363.789645	-363.788701	-363.828744	27.813
C          0.41800        1.46630       -0.00140
N          1.27670        0.26050        0.04000
C         -0.17690        0.11650        0.00970
C         -0.94400       -0.62500        1.11800
C         -1.58050       -1.47630        0.01000
C         -1.87120       -2.90940       -0.01060
O         -2.91990       -1.92820        0.02150
C         -0.98440       -0.59080       -1.09560
H          0.43180        2.06550        0.90550
H          0.36730        2.04180       -0.92290
H          1.66390        0.08430       -0.88470
H         -0.32410       -1.14670        1.85080
H         -1.67970       -0.00330        1.63740
H         -1.78480       -3.46840       -0.94200
H         -1.75610       -3.49870        0.89830
H         -1.73820        0.04500       -1.57040
H         -0.40610       -1.09990       -1.87320
