18
gdb 15698	3.48522	1.67804	1.20406	3.759	67.47	-0.248	-0.0286	0.2194	999.9987	0.154807	-384.977171	-384.969481	-384.968537	-385.009383	29.066
O         -0.06860        1.48760       -0.18320
C          0.03200        0.08260       -0.15590
C         -1.33460       -0.59160        0.03060
C         -1.36890       -2.12830        0.00960
C         -2.64230       -2.49210        0.80660
C         -2.68030       -1.45770        1.94380
C         -1.97100       -0.22910        1.37610
O         -1.88930        0.85210        1.91530
H         -0.55670        1.73480        0.61570
H          0.47190       -0.22780       -1.11020
H          0.71220       -0.26520        0.64150
H         -2.00990       -0.19370       -0.74200
H         -1.36980       -2.54090       -1.00210
H         -0.48220       -2.52420        0.52220
H         -3.52390       -2.37660        0.16590
H         -2.63590       -3.52350        1.16640
H         -3.67580       -1.20280        2.31560
H         -2.09600       -1.79420        2.81070
