12
gdb 4725	6.76149	1.35866	1.13932	5.0461	65.43	-0.2639	-0.0623	0.2016	973.2393	0.084622	-377.567486	-377.56064	-377.559696	-377.598762	24.15
C          0.02020        1.50570        0.01000
C         -0.00010        0.01550       -0.02480
C         -0.13020       -0.83130       -1.08260
O         -0.09260       -2.11330       -0.62710
C          0.06190       -1.97800        0.71300
N          0.12290       -0.74840        1.12590
C          0.13760       -3.16210        1.49150
N          0.19910       -4.12820        2.12450
H          0.96030        1.86980        0.43580
H         -0.09000        1.92290       -0.99370
H         -0.79140        1.88890        0.63610
H         -0.25000       -0.70480       -2.14500
