8
gdb 21754	5.4915	2.37128	1.65614	1.3054	49.01	-0.3119	-0.1328	0.1791	644.9344	0.036614	-445.451882	-445.446612	-445.445668	-445.481324	18.857
O         -0.07950        1.21450        0.00930
N          1.18540        1.84640        0.00060
C          2.01080        0.82980       -0.01250
O          3.29090        0.61420       -0.02570
N          3.29510       -1.07010       -0.03470
N          2.14310       -1.43020       -0.02590
C          1.25540       -0.37200       -0.01180
N         -0.02370       -0.14010        0.00160
