17
gdb 2000	5.94632	1.41037	1.30468	1.4179	60.9	-0.2585	0.0711	0.3296	959.9123	0.146603	-346.832253	-346.82418	-346.823235	-346.864816	28.804
C          0.04110        1.52560        0.02720
C          0.05330       -0.00040       -0.05090
O         -1.25470       -0.53850        0.14800
C          0.51900       -0.51190       -1.41610
C          0.63800       -2.01550       -1.45390
C          1.66120       -2.69880       -2.25240
O          1.80820       -2.57110       -0.83730
H          1.04510        1.93680       -0.12100
H         -0.62480        1.94250       -0.73540
H         -0.31380        1.86140        1.00820
H          0.74230       -0.39680        0.71180
H         -1.53430       -0.32020        1.04220
H         -0.20260       -0.18280       -2.17510
H          1.48980       -0.06690       -1.65860
H         -0.27870       -2.55540       -1.22120
H          1.48300       -3.70990       -2.61660
H          2.35790       -2.11050       -2.84940
