20
gdb 18697	2.95063	2.16263	1.38434	0.2369	80.84	-0.2201	0.0295	0.2496	953.9842	0.179042	-311.88056	-311.873035	-311.872091	-311.911988	29.828
C         -0.09840        1.51380        0.06910
C          0.00500        0.01470       -0.00200
C         -0.02080       -0.66580       -1.15230
C          0.07950       -2.17110       -1.22250
C          0.95590       -2.73990       -0.09080
C          0.59900       -2.14360        1.27000
C          1.46980       -1.06870        1.87750
C          0.11520       -0.71410        1.29400
H          0.77690        1.94690        0.56970
H         -0.18160        1.96080       -0.92550
H         -0.97400        1.82340        0.65490
H         -0.12250       -0.12510       -2.09100
H         -0.92760       -2.61200       -1.17170
H          0.48640       -2.47560       -2.19360
H          0.86370       -3.83060       -0.05580
H          2.00510       -2.52700       -0.32600
H          0.12160       -2.82280        1.96930
H          1.58770       -1.03840        2.95570
H          2.35040       -0.76770        1.31820
H         -0.65150       -0.46100        2.02360
