9
gdb 3817	9.8387	2.01251	1.67076	6.2918	51.18	-0.2855	-0.0401	0.2453	652.2035	0.057746	-334.424572	-334.419394	-334.41845	-334.453624	18.221
N          0.04890       -1.14140       -0.00420
C          0.01550        0.01490        0.00260
C         -0.05460        1.43130        0.01130
C         -1.17830        2.23170        0.03080
N         -0.67480        3.47970        0.03090
N          0.67720        3.47390        0.01250
N          1.05720        2.23810        0.00060
H         -2.23150        2.01040        0.04380
H         -1.16440        4.36130        0.04240
