20
gdb 15152	8.26454	0.6545	0.64097	0.1223	84.7	-0.2387	0.0657	0.3044	1802.0895	0.175627	-311.838557	-311.828883	-311.827938	-311.875251	33.517
C          0.02780        1.48110       -0.01870
C          0.00030        0.02820        0.07630
C         -0.01130       -1.17330        0.15880
C         -0.06310       -2.62850        0.24540
C         -1.40200       -3.21980       -0.24800
C         -1.43770       -4.72920       -0.15330
C         -1.81040       -5.40410        1.14460
C         -2.75030       -5.45930       -0.03530
H          0.84050        1.82430       -0.66890
H         -0.90970        1.87220       -0.42990
H          0.17430        1.94380        0.96390
H          0.75850       -3.06310       -0.34030
H          0.10760       -2.94760        1.28190
H         -2.21940       -2.79240        0.34490
H         -1.57150       -2.90020       -1.28320
H         -0.67120       -5.23150       -0.73970
H         -1.28720       -6.30980        1.43070
H         -2.08870       -4.77080        1.98130
H         -3.65670       -4.86420        0.01200
H         -2.86710       -6.40210       -0.55810
