11
gdb 9028	4.71408	0.93295	0.80313	4.0817	70.5	-0.2914	-0.0605	0.2309	1295.2803	0.069973	-360.194959	-360.186812	-360.185868	-360.228062	28.136
O         -0.06100        1.44510        0.02360
C          0.04180        0.03070       -0.00510
C          0.68450       -0.47210       -1.22560
C          1.22210       -0.85170       -2.22980
C          0.73070       -0.49130        1.18790
C          1.29730       -0.89030        2.17640
C          1.94010       -1.34420        3.29260
N          2.48760       -1.73000        4.24130
H          0.82560        1.80790       -0.09180
H         -0.99670       -0.32500        0.02330
H          1.69110       -1.19460       -3.11970
