13
gdb 3054	7.18579	1.47573	1.30819	5.013	51.44	-0.2756	0.0055	0.281	869.569	0.100407	-381.580932	-381.57388	-381.572936	-381.613012	23.526
O          0.37670        0.29100        0.61540
C          0.48630        1.47650        0.54160
O          0.65890        2.11220       -0.64020
C          0.83920        3.53240       -0.59470
C          2.28460        3.88710       -0.36930
C          2.66080        5.09730        0.37090
O          2.73100        3.81080        0.98680
H          0.45120        2.16950        1.40200
H          0.49190        3.90480       -1.56220
H          0.22010        3.97480        0.19520
H          2.98350        3.47550       -1.09720
H          3.61780        5.57350        0.16680
H          1.88560        5.75880        0.75570
