14
gdb 1307	3.56803	2.63832	2.25229	4.1989	53.12	-0.2585	0.0086	0.2671	662.6069	0.113257	-361.731914	-361.724741	-361.723797	-361.762913	25.64
C         -0.10460        1.56090        0.02520
C         -0.03930        0.03510       -0.05680
N         -1.31670       -0.65250        0.08630
C          0.87450       -0.53710       -1.17020
O          1.81600       -1.03160       -0.15730
C          1.02380       -0.59450        0.86420
O          1.18690       -0.72040        2.03570
H          0.88140        2.02190       -0.09220
H         -0.75830        1.95370       -0.76200
H         -0.51030        1.86710        0.99410
H         -1.57070       -0.68100        1.07010
H         -2.05160       -0.13500       -0.38850
H          0.44160       -1.36660       -1.72970
H          1.36540        0.18350       -1.82740
