14
gdb 19900	4.1204	2.0293	1.74513	4.3634	60.92	-0.2324	-0.0038	0.2286	756.0478	0.106108	-382.45698	-382.450627	-382.449683	-382.487619	24.421
O         -0.16450        0.18510        0.46780
C         -0.06140        1.23100       -0.11990
C          1.18790        2.08130       -0.05750
C          1.25330        3.57630       -0.19820
C          0.06350        4.27000        0.53580
O         -0.78450        3.25550        1.09710
C          0.41650        3.62380        1.79570
C          1.62400        2.90330        1.12840
H         -0.84420        1.59220       -0.81790
H          2.03190        1.57760       -0.52670
H          1.90260        4.08580       -0.89720
H         -0.38410        5.22900        0.30730
H          0.31930        3.93200        2.82870
H          2.59800        2.80750        1.58840
