19
gdb 1923	4.4049	2.67365	2.32017	0.0761	70.65	-0.2863	0.0864	0.3726	690.2392	0.174209	-273.786179	-273.779919	-273.778975	-273.815657	25.87
C         -0.02170        1.52310        0.02360
C          0.02550        0.01260        0.02810
C          0.98170       -0.79970       -0.90290
C          0.71370       -1.93160        0.12790
C          0.66690       -0.80330        1.19590
C         -0.78260       -2.22060       -0.09700
C         -1.30510       -0.74830       -0.17280
H          0.97320        1.95600        0.17370
H         -0.41140        1.90430       -0.92780
H         -0.67370        1.90130        0.82010
H          0.67690       -0.96140       -1.94270
H          2.00940       -0.42860       -0.86610
H          1.38110       -2.78860        0.22660
H          1.66000       -0.43260        1.46350
H          0.07050       -0.96840        2.09990
H         -0.96430       -2.78110       -1.01890
H         -1.22650       -2.78410        0.72930
H         -2.03140       -0.51450        0.61230
H         -1.76920       -0.51150       -1.13570
