8
gdb 166	10.07849	9.91557	4.99818	4.2954	35.66	-0.2641	-0.0023	0.2618	266.8979	0.059084	-242.180146	-242.176561	-242.175617	-242.206312	12.248
N          0.01830        1.30630        0.00930
C          1.29030        1.76790       -0.00040
C          2.04780        0.62290       -0.01450
N          1.21260       -0.45470       -0.01210
N         -0.02070       -0.04000        0.00280
H         -0.84580        1.82410        0.02060
H          1.53250        2.81680        0.00310
H          3.11940        0.51010       -0.02590
