18
gdb 11242	5.1591	1.17938	1.00889	3.0313	75.36	-0.239	-0.0177	0.2213	1159.3606	0.153215	-347.836752	-347.828585	-347.827641	-347.869922	29.63
C         -0.11970        1.48270        0.06720
C          0.01230       -0.00500       -0.01260
C         -0.07150       -0.77400       -1.09850
C          0.06460       -2.24430       -0.79280
C          0.55490       -2.26260        0.68810
C          0.22380       -0.84290        1.23300
C         -0.10570       -3.35390        1.49320
O          0.46160       -4.25350        2.05650
H          0.78130        1.93840        0.49710
H         -0.28920        1.92650       -0.91730
H         -0.95390        1.77200        0.71940
H         -0.25680       -0.40760       -2.10290
H         -0.90140       -2.75990       -0.90760
H          0.76670       -2.76700       -1.45110
H          1.63350       -2.43240        0.71980
H          1.02360       -0.46130        1.87760
H         -0.68830       -0.84360        1.85030
H         -1.21970       -3.26510        1.53130
