20
gdb 7163	6.56802	0.79676	0.74741	1.6779	77.91	-0.2545	0.0493	0.3037	1547.3832	0.173803	-348.976649	-348.966545	-348.965601	-349.011845	36.116
C          0.02860        1.59840       -0.02910
C          0.01350        0.06810       -0.00890
C          0.68740       -0.52310        1.23340
C          0.73920       -2.05630        1.22270
O          1.41270       -2.55710        0.07750
C          1.35770       -2.60450        2.52940
C          1.37220       -4.05920        2.60400
C          1.37090       -5.25910        2.66770
H          1.05370        1.98590       -0.01680
H         -0.46220        1.98860       -0.92610
H         -0.49040        2.01530        0.84160
H         -1.02300       -0.29070       -0.05810
H          0.51300       -0.32710       -0.89960
H          1.71500       -0.13570        1.31690
H          0.16260       -0.18790        2.13810
H         -0.27980       -2.45160        1.13400
H          2.33620       -2.28580        0.13320
H          2.38290       -2.21650        2.62260
H          0.80310       -2.19580        3.38380
H          1.37280       -6.31940        2.71880
