17
gdb 19933	3.67167	2.41804	1.96492	0.7396	66.23	-0.2293	0.0814	0.3106	739.5698	0.145216	-363.819852	-363.813895	-363.812951	-363.849639	24.432
C          0.19390        1.58920        0.15220
C          1.31690        0.64890       -0.06600
C          2.12840        0.23090        1.15600
C          1.10390       -0.39290        2.10520
O          0.42310        0.53700        2.99170
C         -0.86720        0.12790        2.47710
C         -0.20220       -0.60060        1.29960
N         -0.07570        0.14230        0.03410
H          0.13290        2.06590        1.12620
H         -0.19740        2.17860       -0.67250
H          1.78520        0.57180       -1.04330
H          2.87910       -0.51640        0.87770
H          2.65030        1.06610        1.63320
H          1.49700       -1.24530        2.67100
H         -1.38340       -0.54180        3.17670
H         -1.51510        0.97780        2.23980
H         -0.53630       -1.61650        1.08320
