14
gdb 4063	6.93153	1.03968	0.96241	3.5412	66.86	-0.2618	-0.0144	0.2473	1137.5486	0.106582	-378.681756	-378.674109	-378.673165	-378.714294	27.515
O         -0.18650        1.31350        0.20090
N         -0.01200       -0.07740        0.14190
C         -1.11430       -0.66370       -0.05930
C         -2.54530       -0.23190       -0.30440
C         -2.84560       -1.71490       -0.73280
C         -1.41210       -2.13710       -0.23470
C         -3.97890       -2.36760       -0.10260
N         -4.87560       -2.88340        0.41390
H          0.71280        1.62790        0.34490
H         -3.07010        0.07260        0.60530
H         -2.69860        0.53120       -1.07000
H         -2.93520       -1.80760       -1.81720
H         -0.80090       -2.68610       -0.95350
H         -1.43840       -2.69260        0.70680
