16
gdb 5387	4.93687	1.52341	1.26344	2.3519	72.39	-0.248	-0.036	0.2119	971.9973	0.133086	-342.848368	-342.841265	-342.840321	-342.880421	25.938
C          0.13100        1.54140        0.14760
C         -0.06360        0.02860       -0.04780
C          0.69590       -0.49030       -1.24190
N          0.27670       -0.08350       -2.45020
C          0.95660       -0.52960       -3.50390
N          2.01560       -1.34210       -3.50250
C          2.42400       -1.74060       -2.29530
C          1.79520       -1.34110       -1.12330
H          1.17960        1.78160        0.35100
H         -0.17250        2.07980       -0.75380
H         -0.46930        1.90230        0.98760
H          0.24740       -0.51410        0.85090
H         -1.12810       -0.17840       -0.20540
H          0.60760       -0.19550       -4.47880
H          3.28530       -2.40490       -2.26860
H          2.14450       -1.67930       -0.15420
