14
gdb 15553	3.29816	2.05656	1.42943	4.0783	61.4	-0.2772	-0.0072	0.27	843.7163	0.108183	-378.74814	-378.74091	-378.739966	-378.780396	25.703
C         -0.31160        1.54330       -0.03140
C          0.06690        0.07550       -0.06470
O          1.10710       -0.13920       -1.06070
C          2.08520       -0.82880       -0.44590
N          1.99450       -1.12320        0.78550
C          0.70930       -0.54170        1.23200
C          0.93090        0.42780        2.31320
N          1.08060        1.19790        3.16100
H          0.53880        2.16140        0.26660
H         -0.65240        1.86170       -1.01970
H         -1.12160        1.70830        0.68460
H         -0.78700       -0.53540       -0.37230
H          2.92160       -1.09400       -1.08310
H          0.07500       -1.33730        1.63620
