17
gdb 7295	3.73738	1.30869	1.09499	3.3925	71.91	-0.2432	0.0256	0.2688	1110.3775	0.139334	-363.855986	-363.846488	-363.845544	-363.890959	32.932
C         -0.38500        1.33290        0.12300
N         -0.12000       -0.08180       -0.05870
C         -0.06100       -0.88830        1.15880
C         -1.33280       -0.93040        1.87960
C         -2.37460       -0.95120        2.47850
C          0.13940       -0.70410       -1.25870
C          0.09430        0.15340       -2.51550
O          0.39550       -1.89520       -1.32330
H         -0.53330        1.82810       -0.83390
H         -1.29060        1.46910        0.72430
H          0.44640        1.82860        0.64390
H          0.23840       -1.89200        0.84760
H          0.72110       -0.49360        1.82370
H         -3.29540       -0.98870        3.00620
H          0.81880        0.97270       -2.47930
H          0.33410       -0.49720       -3.35550
H         -0.89720        0.58870       -2.67450
