14
gdb 2628	6.74947	1.17576	1.03942	2.5044	59.93	-0.2484	-0.0279	0.2205	1055.7236	0.111045	-324.530718	-324.522704	-324.52176	-324.563884	27.149
O          0.00860       -0.02870       -0.54490
C          0.27740        1.06170       -0.11450
C          1.33260        1.98120       -0.70630
N          0.98010        3.37610       -0.47560
C          2.05500        4.32900       -0.76360
C          2.51500        4.35330       -2.15820
C          2.84990        4.34510       -3.31320
H         -0.22890        1.48660        0.78160
H          2.26430        1.77250       -0.15800
H          1.51110        1.70250       -1.75510
H          0.17160        3.61850       -1.04050
H          1.70740        5.32850       -0.47740
H          2.89970        4.09630       -0.10280
H          3.15720        4.34550       -4.32990
