16
gdb 16777	3.74315	1.84397	1.76163	0.7612	60.19	-0.2292	0.071	0.3002	816.6188	0.129611	-420.840579	-420.832916	-420.831972	-420.873493	27.442
O         -0.45380        1.55430       -0.03170
C         -0.12670        0.18130        0.00190
C         -1.40690       -0.64350        0.01390
O         -2.19350       -0.33130        1.15430
C         -3.50290       -0.04520        0.72980
C         -3.70170        1.24120       -0.04560
C         -3.49370       -0.08110       -0.75550
O         -2.17930       -0.38690       -1.14970
H          0.36250        2.06060       -0.04550
H          0.45670       -0.12660       -0.87930
H          0.44700       -0.08530        0.90280
H         -1.13130       -1.71290        0.04140
H         -4.27150       -0.47420        1.36190
H         -4.70030        1.66670       -0.06220
H         -2.87300        1.93880       -0.05730
H         -4.25460       -0.54020       -1.37570
