20
gdb 11947	3.27631	1.59298	1.32638	1.5628	75.96	-0.2434	0.0726	0.316	1019.0209	0.17643	-348.977033	-348.968436	-348.967492	-349.009895	32.412
C          0.06390        1.53360        0.01500
C         -0.00530        0.03370        0.07210
C          1.15630       -0.85830       -0.27550
C          0.55140       -0.96780        1.10130
C          1.34520       -0.73500        2.34570
O          2.11180       -1.90490        2.62100
C         -0.73380       -1.80040        1.01340
C         -1.30340       -0.78320       -0.02870
H          1.05380        1.90220        0.30330
H         -0.13590        1.89680       -1.00100
H         -0.67440        1.99720        0.68000
H          1.04450       -1.67160       -0.99000
H          2.12440       -0.36700       -0.31450
H          1.99830        0.14320        2.21000
H          0.66640       -0.50960        3.18500
H          2.54100       -1.78400        3.47360
H         -0.61050       -2.83540        0.67990
H         -1.30450       -1.80280        1.94600
H         -2.17400       -0.24320        0.35360
H         -1.54780       -1.17320       -1.02280
