16
gdb 11307	3.76249	1.63153	1.33234	2.1822	61.49	-0.2514	-0.0312	0.2202	940.9264	0.129149	-420.885377	-420.877423	-420.876479	-420.918612	27.715
C         -0.04960        1.47440       -0.01030
C          0.09940       -0.02280        0.10330
O          0.63910       -0.56100       -1.09100
C          1.26580       -1.77840       -0.74180
C          1.53130       -1.63140        0.79880
O          1.03740       -0.35430        1.11460
C          0.83900       -2.74690        1.56960
O         -0.15230       -2.60840        2.23360
H          0.92110        1.92510       -0.22970
H         -0.75040        1.71810       -0.81240
H         -0.43330        1.88040        0.92860
H         -0.86260       -0.51340        0.32980
H          0.61680       -2.63970       -0.95830
H          2.18650       -1.88060       -1.32140
H          2.60340       -1.66640        1.02890
H          1.32920       -3.74280        1.44660
