16
gdb 9057	5.05243	0.90273	0.79919	1.2488	73.12	-0.2581	0.0268	0.2849	1369.455	0.126788	-346.530817	-346.521513	-346.520569	-346.565041	33.382
O         -0.08230        1.42730       -0.00300
C          0.01940        0.00430        0.01640
C          0.69100       -0.54130       -1.25810
C         -0.05310       -0.09240       -2.53010
C          0.59090       -0.55880       -3.75070
C          1.14280       -0.95470       -4.74250
C          0.70780       -0.47200        1.21870
C          1.31340       -0.83950        2.19000
H          0.79270        1.78230        0.19090
H         -1.02140       -0.34420        0.04050
H          1.72950       -0.19320       -1.29230
H          0.72520       -1.63420       -1.20550
H         -1.08720       -0.46100       -2.49690
H         -0.12090        1.00090       -2.53210
H          1.61950       -1.29850       -5.62660
H          1.83060       -1.16920        3.05730
