20
gdb 18594	3.21154	2.05352	1.67069	1.5007	73.58	-0.2477	0.0775	0.3252	877.1353	0.179419	-349.004202	-348.99698	-348.996036	-349.035717	28.52
C         -0.79520        1.31180       -0.00260
C         -0.07660       -0.03040       -0.02880
C          1.13750       -0.16340       -0.99490
C          2.03920       -0.63770        0.17780
C          3.09340        0.36780        0.64440
O          2.36900        1.39160        1.32020
C          1.35670        0.72400        2.06900
C          0.84910       -0.41220        1.17600
H         -0.08830        2.13260        0.15630
H         -1.30690        1.49230       -0.95460
H         -1.54980        1.35290        0.79120
H         -0.80540       -0.82830       -0.20410
H          1.01210       -0.88260       -1.80790
H          1.45810        0.79040       -1.42610
H          2.42950       -1.65280        0.08960
H          3.81110       -0.11220        1.33070
H          3.65210        0.83760       -0.17070
H          1.77970        0.30930        2.99920
H          0.59990        1.46520        2.33820
H          0.51100       -1.26940        1.76160
