19
gdb 7667	3.12984	2.18729	1.53767	2.0692	72.98	-0.2029	0.0752	0.2782	882.2818	0.163862	-364.970689	-364.962498	-364.961554	-365.002761	31.843
C          0.36820        1.48800        0.12860
N          0.24180        0.03040        0.04550
C         -0.96970       -0.73380        0.53470
C         -0.07200       -1.99510        0.39730
C          0.76460       -0.89710        1.11800
C         -0.47930       -0.63400        2.03570
C         -0.66800        0.63020        2.86490
O         -0.75840       -1.74330        2.87940
H          0.99410        1.83050        0.96100
H          0.83700        1.84780       -0.79530
H         -0.60600        1.98430        0.20870
H         -1.96420       -0.55730        0.11680
H         -0.34860       -2.87320        0.97240
H          0.25250       -2.20190       -0.62120
H          1.82050       -0.92090        1.39670
H         -1.69580        0.65350        3.25270
H          0.00590        0.60430        3.72750
H         -0.51060        1.56110        2.32960
H         -1.53880       -1.53300        3.40230
