21
gdb 7842	4.17965	1.12781	0.96484	2.1023	75.82	-0.2283	0.0872	0.3155	1274.3449	0.187143	-366.23466	-366.22519	-366.224246	-366.269267	34.733
C         -0.06730        1.56110       -0.22510
C         -0.04620        0.04980       -0.04880
O          0.66180       -0.50060       -1.15140
C          0.60690       -0.37290        1.27410
N          0.73680       -1.83050        1.29510
C          2.08000       -2.40490        1.19290
C          1.31710       -2.49420        2.46720
C          1.75160       -1.73130        3.69900
H          0.95290        1.95830       -0.23890
H         -0.54650        1.82440       -1.17160
H         -0.61870        2.04160        0.58920
H         -1.08070       -0.33120       -0.04370
H          0.66160       -1.45500       -1.01390
H          1.57450        0.14320        1.37900
H         -0.03320       -0.05890        2.10760
H          2.18690       -3.26900        0.54140
H          2.92040       -1.71230        1.16430
H          0.82590       -3.44080        2.69060
H          2.30960       -0.82580        3.44930
H          0.88930       -1.44230        4.31050
H          2.39760       -2.36180        4.31880
