17
gdb 10754	2.89623	1.68967	1.46271	2.3861	64.48	-0.2494	-0.043	0.2063	936.4683	0.139534	-400.972731	-400.963867	-400.962923	-401.006284	31.798
C          0.05320        1.59020        0.20190
C          0.08740        0.05820        0.10130
O          0.86430       -0.39950        1.20450
C         -1.35830       -0.43010        0.26080
O         -2.14660       -0.55780       -0.63630
C          0.66030       -0.38780       -1.24370
C          2.10240       -0.23390       -1.53380
N          1.51590       -1.57820       -1.35120
H          1.07780        1.96940        0.22870
H         -0.46380        2.01540       -0.66170
H         -0.45760        1.91050        1.11510
H          0.65020       -1.32280        1.37920
H         -1.63380       -0.63430        1.32360
H         -0.05820       -0.29210       -2.05260
H          2.43470       -0.00750       -2.54260
H          2.73840        0.14990       -0.74080
H          1.76750       -1.89220       -0.41570
