16
gdb 18172	4.67068	1.60143	1.29749	0.8148	79.59	-0.2197	-0.0172	0.2024	940.5943	0.131115	-309.439158	-309.432253	-309.431308	-309.469972	27.457
C          0.08270       -1.18220       -0.00710
C          0.00520        0.02040        0.00920
C         -0.03360        1.43570        0.01190
C         -1.13230        2.20940        0.08510
C         -0.80340        3.68220        0.02290
C          0.72480        3.71300        0.01230
C          1.45550        3.12410        1.19060
C          1.21170        2.27450       -0.03890
H          0.13600       -2.24250       -0.01660
H         -2.14210        1.83240        0.19300
H         -1.22240        4.14050       -0.88390
H         -1.23110        4.23620        0.86900
H          1.22500        4.48430       -0.56090
H          2.46840        3.47180        1.36450
H          0.89820        2.88240        2.09040
H          2.05060        1.95020       -0.64310
