18
gdb 8147	4.35773	1.61253	1.35079	1.9818	73.36	-0.2318	0.0093	0.2411	970.1667	0.152876	-347.81022	-347.802442	-347.801497	-347.841811	29.948
C          0.04980        1.49510        0.01500
C         -0.03060        0.00340       -0.03640
C         -0.02890       -0.77520       -1.12590
C         -0.02370       -2.21520       -0.74370
O          1.14290       -2.60060        0.03180
C         -0.06730       -2.27930        0.72960
C         -0.68300       -3.38620        1.54040
C         -0.09260       -0.83360        1.23240
H          0.96170        1.82430        0.52950
H          0.05080        1.93270       -0.98690
H         -0.79320        1.91980        0.57510
H          0.01100       -0.42420       -2.15030
H         -0.41580       -2.99410       -1.39160
H         -0.62300       -4.33450        1.00040
H         -0.15800       -3.50680        2.49500
H         -1.73410       -3.17240        1.76140
H          0.75390       -0.62860        1.89970
H         -1.00570       -0.62330        1.80640
