14
gdb 12409	3.15775	2.23488	1.42812	2.9003	53.21	-0.2831	-0.0067	0.2764	823.685	0.108064	-456.838417	-456.831468	-456.830524	-456.869882	25.451
O          0.45090        0.60080        0.87710
C         -0.11760       -0.25600       -0.06820
C         -1.61720        0.05990       -0.27620
O         -2.06400       -0.31400       -1.58290
C         -1.27850       -1.28320       -2.17690
O          0.05540       -0.79410       -2.43190
C          0.63150       -0.16560       -1.39460
O          1.67770        0.42020       -1.49890
H          1.26190        0.93840        0.46350
H         -0.02060       -1.30500        0.26260
H         -2.22500       -0.44290        0.48560
H         -1.75690        1.13930       -0.18290
H         -1.20530       -2.20140       -1.57420
H         -1.69810       -1.50690       -3.15740
