17
gdb 20051	5.40443	1.39518	1.19228	2.0063	68.35	-0.2445	0.0268	0.2714	1007.2061	0.14398	-363.863483	-363.856309	-363.855365	-363.895749	26.47
C         -0.13730        1.33570       -0.23320
C          1.28020        0.96330        0.11600
C          0.20960       -0.09610        0.10270
C         -0.29210       -0.68720        1.38920
C         -1.65250       -1.43590        1.28910
N         -1.36570       -2.82860        1.67430
C         -0.12870       -2.85660        1.94510
O          0.62020       -1.73490        1.84630
H         -0.70670        1.90490        0.49450
H         -0.37410        1.57450       -1.26350
H          2.02060        0.94870       -0.67550
H          1.66670        1.27820        1.07960
H          0.22720       -0.79940       -0.72590
H         -0.30020        0.08000        2.17130
H         -2.41130       -1.01480        1.95580
H         -2.05960       -1.40550        0.27230
H          0.42310       -3.73470        2.26350
