17
gdb 7313	3.9569	1.20513	0.99653	3.959	67.16	-0.2438	-0.0309	0.2129	1163.8872	0.13906	-401.035471	-401.025972	-401.025028	-401.070871	31.858
C          0.37130        1.26600        0.15560
N          0.11260       -0.13860       -0.11190
C          0.19620       -1.03060        1.03020
C         -1.01270       -0.91140        1.94520
O         -0.97210       -1.02130        3.14160
C         -0.05940       -0.69190       -1.36420
C         -0.07380        0.25420       -2.55520
O         -0.20190       -1.89350       -1.51330
H          1.41770        1.43200        0.44700
H          0.15580        1.87640       -0.71880
H         -0.26270        1.62090        0.97640
H          0.21500       -2.05270        0.63470
H          1.10740       -0.85580        1.61380
H         -1.96790       -0.72440        1.40130
H          0.86560        0.80770       -2.64860
H         -0.21890       -0.35390       -3.44710
H         -0.88710        0.98340       -2.48610
