18
gdb 17390	4.68415	1.69898	1.60025	1.5335	71.19	-0.2301	0.0784	0.3085	874.1346	0.154378	-347.75197	-347.745176	-347.744232	-347.78275	27.277
C         -0.16280        1.37640        0.09580
C          1.13470        0.69230       -0.19610
O          1.76620        0.26460        1.01360
C          0.66460       -0.63920        1.28540
C          0.96750       -2.14940        1.39280
C         -0.08190       -2.22400        2.53790
C          0.03450       -0.68070        2.69140
C         -0.09550       -0.13910        0.05790
H         -0.28780        1.90260        1.03820
H         -0.66220        1.82740       -0.75660
H          1.75580        0.84440       -1.07080
H          0.81670       -2.76190        0.50020
H          1.98580       -2.29970        1.76170
H         -1.06730       -2.52840        2.17600
H          0.17250       -2.83280        3.40710
H          0.77700       -0.40450        3.44550
H         -0.87540       -0.09780        2.85490
H         -0.69080       -0.74870       -0.60870
