14
gdb 23648	3.88612	1.78508	1.23253	3.482	66.18	-0.2554	-0.0253	0.2301	916.5547	0.107978	-386.762176	-386.755341	-386.754397	-386.794262	24.979
C         -0.01440        1.52230        0.01230
C          0.00440        0.01640        0.01350
C          0.07990       -0.70940       -1.18400
C          0.09460       -2.09380       -1.13570
N          0.04030       -2.79970        0.00390
C         -0.02990       -2.10110        1.11120
F         -0.08400       -2.79810        2.24460
C         -0.05210       -0.71070        1.19740
H          0.88900        1.92430       -0.45890
H         -0.86900        1.90230       -0.55780
H         -0.07640        1.92410        1.02630
H          0.12650       -0.19770       -2.13930
H          0.15270       -2.67730       -2.05060
H         -0.11190       -0.22910        2.16620
