12
gdb 21670	3.53345	2.49573	1.46264	3.2007	63.56	-0.2201	-0.0475	0.1727	769.1761	0.086197	-406.98143	-406.974686	-406.973742	-407.012381	24.899
N          0.00230        1.31650        0.00910
C         -0.02900       -0.02330        0.00150
N         -1.15890       -0.68080        0.00440
N         -0.99340       -2.02750       -0.00360
N          0.11910       -2.72700       -0.01350
N          1.24730       -2.11290       -0.01700
C          1.27130       -0.71610       -0.00970
N          2.34030       -0.00970       -0.01410
H          0.91500        1.74500        0.00320
H         -0.84380        1.85840        0.01340
H         -1.84140       -2.57180       -0.00140
H          3.15770       -0.62270       -0.02290
