18
gdb 18432	2.91118	2.00142	1.5417	0.8821	77.41	-0.2414	0.0492	0.2905	902.4308	0.153259	-310.607562	-310.59978	-310.598835	-310.639191	30.376
C         -0.34510        1.52090       -0.00300
C          0.01950        0.04190        0.00750
C          1.17320       -0.51220       -0.90350
C          1.76680       -1.22250        0.32020
C          2.18360       -0.21200        1.36820
C          2.78420        1.05750        1.06370
C          3.34180        2.09800        0.82740
C          0.71650       -0.58720        1.22510
H          0.52540        2.15240        0.18420
H         -0.77150        1.80540       -0.97170
H         -1.09540        1.74020        0.76520
H         -0.88020       -0.54890       -0.19690
H          0.81590       -1.19230       -1.67900
H          1.82640        0.23680       -1.36080
H          2.16940       -2.22820        0.33650
H          2.62220       -0.68770        2.24350
H          3.81900        3.02320        0.61890
H          0.20320       -1.01650        2.07870
