8
gdb 20	11.1475	10.36388	5.42091	3.4869	28.07	-0.2495	0.0556	0.3051	244.2308	0.063824	-225.221461	-225.217075	-225.216131	-225.247724	15.292
N          0.03610        1.36080       -0.12420
C         -0.02590       -0.02080        0.00200
N          1.21970       -0.62330        0.11960
O         -1.06820       -0.64170        0.00870
H          0.80750        1.83460        0.32140
H         -0.85830        1.80370        0.02240
H          1.99930       -0.17300       -0.33600
H          1.18200       -1.62150       -0.02110
