17
gdb 19447	3.08219	2.18262	1.58825	2.3334	68.36	-0.2423	0.0582	0.3005	849.659	0.142458	-363.799293	-363.792115	-363.791171	-363.830805	27.621
C          0.29640        1.48100       -0.10250
N          1.30770        0.42930        0.12080
C         -0.10300        0.06360        0.01080
C         -0.85400       -0.73390        1.08730
C         -1.21030       -1.80750        0.00380
C         -0.62790       -0.87060       -1.06280
C         -1.07200       -0.58970       -2.42900
O          0.16040       -1.28280       -2.16760
H          0.14670        2.15440        0.73760
H          0.23760        1.95670       -1.07920
H          1.76610        0.19830       -0.76010
H         -0.22900       -1.07990        1.91210
H         -1.72740       -0.21460        1.48940
H         -0.62840       -2.72720        0.10010
H         -2.26650       -2.06350       -0.10320
H         -1.85870       -1.19630       -2.87630
H         -0.96570        0.41150       -2.84450
