18
gdb 9179	7.63666	0.78952	0.72822	2.3474	74.73	-0.246	-0.0143	0.2317	1534.7264	0.149944	-347.800479	-347.790613	-347.789669	-347.840208	33.701
C          0.11020        1.53560        0.00910
C         -0.04780        0.01710        0.00240
C         -1.49900       -0.44530        0.01380
O         -2.42350        0.33620        0.02720
C         -1.72640       -1.95230        0.00790
C         -3.21630       -2.33030        0.02030
C         -3.42200       -3.77300        0.01440
C         -3.56540       -4.96650        0.00970
H          1.16770        1.81360        0.00060
H         -0.37270        1.98190       -0.86390
H         -0.35610        1.97250        0.89570
H          0.43960       -0.42940       -0.87540
H          0.45610       -0.43880        0.86600
H         -1.22830       -2.38070       -0.87100
H         -1.21140       -2.39010        0.87230
H         -3.69430       -1.88320        0.89880
H         -3.71120       -1.87390       -0.84400
H         -3.71030       -6.01810        0.00590
