17
gdb 19231	3.01618	2.00854	1.54324	4.2009	71.41	-0.2792	0.0285	0.3078	876.0263	0.142923	-326.71705	-326.709565	-326.708621	-326.748696	28.322
C         -0.16350        1.58650       -0.08660
C          0.03950        0.07920       -0.05760
C          0.71640       -0.61880       -1.24700
C          2.16360       -0.23170       -1.36590
C          1.76890       -1.24490       -0.33230
C          1.14620       -0.55160        0.89380
C          2.00060        0.35840        1.64520
N          2.67370        1.10020        2.22370
H          0.76550        2.12160       -0.30050
H         -0.89280        1.85350       -0.85870
H         -0.54050        1.95100        0.87430
H         -0.90880       -0.41370        0.17440
H          0.18270       -1.07980       -2.06900
H          2.67690       -0.64130       -2.22960
H          2.51790        0.75150       -1.06900
H          2.16410       -2.25220       -0.31780
H          0.69610       -1.26290        1.58970
