21
gdb 20017	4.28759	1.21415	1.09125	1.2152	79.23	-0.2085	0.0912	0.2997	1187.8828	0.18827	-329.079133	-329.070408	-329.069464	-329.112867	32.617
C         -0.45640       -3.39210        1.48160
C         -0.48860       -1.86500        1.61720
C         -1.57210       -1.24570        0.75680
C         -2.94230       -1.00890        1.29640
N         -2.07640        0.11500        0.95700
C         -1.51210        0.96290        1.97900
C         -2.37240        1.98920        2.65360
C         -1.76510        0.86740        3.46990
H          0.34950       -3.82570        2.08150
H         -1.40080       -3.83660        1.81220
H         -0.29550       -3.69410        0.44080
H         -0.63670       -1.58560        2.66450
H          0.48530       -1.45270        1.32090
H         -1.48790       -1.50460       -0.29960
H         -3.82520       -1.12780        0.67310
H         -3.09740       -1.25390        2.34560
H         -0.51660        1.29300        1.69470
H         -1.99140        2.99740        2.77280
H         -3.43890        1.93370        2.46190
H         -2.44150        0.10900        3.84660
H         -0.94240        1.09320        4.14070
