17
gdb 18135	3.23287	1.8878	1.49575	4.1684	71.81	-0.2765	0.0287	0.3052	888.8617	0.143229	-326.714419	-326.707008	-326.706063	-326.745942	28.173
C         -0.08100        1.53400       -0.11860
C          0.06980        0.03550        0.04030
C          1.32120       -0.76230       -0.20260
C          2.57100       -0.02500        0.29510
C          1.96550       -0.02460        1.74660
C          1.85220        1.23410        2.47520
N          1.77190        2.23180        3.05470
C          0.69210       -0.69830        1.19920
H          0.79370        2.09280        0.21880
H         -0.25290        1.78680       -1.17060
H         -0.93690        1.89890        0.45810
H         -0.80610       -0.50980       -0.30900
H          1.34530       -1.60020       -0.88840
H          3.48220       -0.62260        0.24700
H          2.76980        0.95430       -0.14620
H          2.52180       -0.72440        2.37560
H          0.15360       -1.46120        1.74810
