17
gdb 1580	7.76358	1.18888	1.08352	3.1223	57.66	-0.2586	0.0725	0.3311	1076.9996	0.146641	-383.971058	-383.962399	-383.961455	-384.004288	29.996
C          0.11740        1.29460       -0.12900
O          0.07560       -0.10700        0.01190
C          0.61680       -0.56740        1.23630
C          0.61620       -2.08820        1.16650
O          1.35220       -2.52550        0.02990
C          1.27450       -2.75090        2.37170
O          1.28480       -4.15600        2.23300
H          1.14880        1.67700       -0.08440
H         -0.31040        1.53830       -1.10430
H         -0.47100        1.79770        0.65330
H          1.64650       -0.19450        1.36260
H          0.01520       -0.21220        2.08900
H         -0.42670       -2.43640        1.09660
H          1.02880       -2.00850       -0.71720
H          2.29550       -2.35000        2.48570
H          0.71490       -2.51900        3.28410
H          1.61080       -4.32730        1.34110
