15
gdb 4471	3.61567	1.75424	1.19755	1.872	64.71	-0.1876	0.041	0.2285	964.5611	0.118333	-399.829792	-399.821686	-399.820742	-399.86186	29.877
C          0.06540        1.55240        0.07940
C          0.03850        0.05750        0.05880
C         -0.02070       -0.72450       -1.04960
N         -0.07110       -0.41800       -2.40590
O         -0.02840       -2.07620       -0.66010
C          0.02700       -2.08120        0.68680
O          0.03080       -3.28320        1.28910
C          0.07000       -0.82730        1.20010
H          0.97360        1.92940        0.56420
H          0.03080        1.94530       -0.93920
H         -0.78660        1.96020        0.63580
H         -0.91850       -0.74580       -2.85880
H          0.72410       -0.77480       -2.92640
H         -0.00920       -3.95940        0.60260
H          0.11760       -0.56190        2.24300
