18
gdb 14732	8.13556	0.53612	0.52474	1.3163	74.41	-0.2421	0.0368	0.2789	2058.7621	0.151172	-384.895968	-384.885682	-384.884737	-384.933565	34.074
O         -0.08130        1.39560       -0.42880
C          0.00360        0.02870       -0.05970
C         -1.40490       -0.54980       -0.08830
C         -1.43050       -2.03780        0.30920
C         -2.76810       -2.61700        0.28230
C         -3.87930       -3.07830        0.24550
C         -5.22660       -3.63200        0.22580
O         -5.38810       -4.46500       -0.91760
H          0.80610        1.76590       -0.42050
H          0.65100       -0.53370       -0.75310
H          0.43330       -0.08690        0.94970
H         -2.04090        0.02670        0.59120
H         -1.82170       -0.42800       -1.09320
H         -0.77940       -2.61010       -0.36570
H         -1.00040       -2.15830        1.31300
H         -5.39810       -4.19860        1.15610
H         -5.95580       -2.80520        0.22000
H         -6.28870       -4.80450       -0.89810
