18
gdb 8857	3.81909	1.20274	1.02484	2.6991	75.09	-0.2597	-0.0555	0.2043	1189.7545	0.150318	-347.792585	-347.782936	-347.781992	-347.82748	33.949
C         -0.02680        1.57510        0.09560
C          0.06320        0.04640        0.07410
C          0.67040       -0.52190       -1.21700
C          2.15570       -0.15210       -1.41270
C          0.51620       -2.04010       -1.26730
O          0.16520       -2.71160       -0.32130
C          0.82040       -2.66190       -2.55080
C          1.05380       -3.16840       -3.61800
H          0.95920        2.04900        0.06090
H         -0.60690        1.95250       -0.75440
H         -0.52060        1.91800        1.00990
H          0.64950       -0.30980        0.92860
H         -0.93620       -0.38130        0.20530
H          0.11700       -0.13090       -2.08400
H          2.55950       -0.60080       -2.32420
H          2.27450        0.93110       -1.49090
H          2.75460       -0.50070       -0.56460
H          1.25720       -3.63220       -4.55260
