14
gdb 10597	2.96013	1.78425	1.34177	2.7999	60.3	-0.2573	-0.0617	0.1956	919.8843	0.103321	-419.671171	-419.663	-419.662056	-419.703795	28.44
C          0.21400        1.38710       -0.17840
C          0.40200       -0.10270       -0.09560
O          1.70950       -0.61240        0.02710
C          0.85210       -0.81270        1.15550
C          1.15280       -0.04960        2.41640
O          1.81820        0.95360        2.45730
C          0.36440       -2.22080        1.31630
O         -0.13030       -2.65100        2.32670
H          0.87050        1.90300        0.52210
H          0.44800        1.71990       -1.19510
H         -0.82820        1.64870        0.02940
H         -0.24010       -0.69590       -0.75250
H          0.70220       -0.50290        3.31970
H          0.50070       -2.83780        0.40100
