18
gdb 9612	3.15703	1.49833	1.20415	1.7414	74.91	-0.2566	0.0224	0.279	1066.8933	0.150347	-347.760741	-347.751582	-347.750638	-347.794385	33.491
C         -0.41260        1.39880        0.09080
C          0.41040        0.12750       -0.15500
C          0.94700       -0.48420        1.12690
C          2.03730        0.28180        1.84690
O         -0.05240       -1.04820        1.98850
C          0.86620       -1.95210        1.34900
C          0.33540       -2.87450        0.38140
C         -0.07870       -3.67530       -0.41440
H          0.19020        2.20260        0.52500
H         -0.83140        1.77220       -0.84810
H         -1.24120        1.18970        0.77370
H         -0.20830       -0.61560       -0.66520
H          1.25610        0.34690       -0.81890
H          1.69030        1.28250        2.12230
H          2.33350       -0.23510        2.76290
H          2.91810        0.39500        1.20630
H          1.59550       -2.39030        2.03140
H         -0.45200       -4.37820       -1.11770
