14
gdb 17151	4.17742	2.01592	1.61847	5.3113	66.85	-0.2503	0.0164	0.2666	782.3492	0.109146	-341.499002	-341.493018	-341.492074	-341.529052	23.466
N          0.02690       -1.09760       -0.01880
C         -0.00150        0.05830        0.00420
C         -0.05860        1.49350        0.06400
C         -0.76870        2.39780        1.09730
C         -0.11990        3.39910        0.12200
C          1.14260        2.49290       -0.09860
N          1.05100        2.45050       -1.59120
C         -0.36940        2.47540       -1.12240
H         -1.86020        2.34970        1.10490
H         -0.36990        2.36700        2.11400
H         -0.13930        4.48830        0.13200
H          2.08210        2.47740        0.45410
H          1.30780        3.35930       -1.98610
H         -1.23110        2.43900       -1.78910
