18
gdb 7791	3.37406	1.70575	1.19541	4.5319	68.12	-0.2567	0.0152	0.2719	1007.9655	0.154818	-384.994326	-384.986599	-384.985655	-385.026499	28.913
C         -0.01270        1.58150        0.00560
C          0.00120        0.05270       -0.05810
C          0.80400       -0.48910       -1.24270
C          0.71990       -2.00730       -1.26830
O          1.09650       -2.63710       -0.03170
C          0.87910       -2.05730        1.17480
O          0.99910       -2.72120        2.16830
C          0.58430       -0.56260        1.22030
H          1.00530        1.97900        0.09350
H         -0.46300        2.01050       -0.89540
H         -0.58400        1.93760        0.86910
H         -1.03570       -0.29680       -0.16870
H          0.42190       -0.10190       -2.19410
H          1.85160       -0.17070       -1.16020
H         -0.30440       -2.32450       -1.50610
H          1.38500       -2.43770       -2.02120
H          1.54770       -0.08210        1.44430
H         -0.05020       -0.39060        2.09330
