19
gdb 6720	6.84493	0.71585	0.67134	2.6341	71.36	-0.258	0.0252	0.2832	1656.9915	0.163216	-402.196441	-402.186539	-402.185595	-402.23286	33.82
C         -0.03730        1.53570        0.11430
C         -0.02350        0.01060        0.02680
O          0.69520       -0.56730        1.11720
C         -1.43660       -0.57600       -0.08310
C         -1.42340       -2.09090       -0.21750
O         -2.78000       -2.54050       -0.27480
C         -2.97710       -3.86440       -0.14570
N         -4.13760       -4.34790       -0.26470
H          0.98250        1.91850        0.20730
H         -0.49790        1.98060       -0.77330
H         -0.61100        1.86890        0.98840
H          0.55270       -0.28850       -0.85850
H          0.29440       -0.24560        1.93290
H         -2.02060       -0.30270        0.80600
H         -1.95400       -0.14010       -0.94510
H         -0.89540       -2.39210       -1.13320
H         -0.90400       -2.54080        0.63630
H         -2.05720       -4.42640        0.07120
H         -4.10750       -5.35530       -0.12210
