19
gdb 17241	4.51225	1.58802	1.53038	1.8445	74.35	-0.219	0.0822	0.3012	930.2448	0.166648	-327.852754	-327.845556	-327.844612	-327.88414	28.267
C          0.17740        1.48440        0.22280
C         -0.09720        0.01940       -0.14470
C          0.66070       -0.43360       -1.35990
C          0.45040       -0.06640       -2.82270
N          1.29420       -1.26040       -3.22510
C          2.66070       -0.83970       -2.71390
C          2.12580       -0.93400       -1.29650
C          1.02480       -1.82000       -1.80770
H          1.23810        1.64190        0.44280
H         -0.09330        2.15470       -0.59980
H         -0.40000        1.78570        1.10200
H          0.15820       -0.62760        0.70440
H         -1.17280       -0.11930       -0.31770
H         -0.58230       -0.22840       -3.14660
H          0.80920        0.89550       -3.20860
H          3.38850       -1.62230       -2.94540
H          3.01690        0.12110       -3.10390
H          2.65270       -0.99720       -0.35190
H          0.67600       -2.81600       -1.57310
