16
gdb 20047	5.57894	1.32971	1.17302	2.3527	68.41	-0.2315	0.0025	0.234	1012.7344	0.130688	-383.713652	-383.706327	-383.705383	-383.746106	26.142
C          0.21870        1.47690        0.02970
O          1.16330        0.44370       -0.22420
C         -0.20170        0.06150        0.02560
C         -0.46400       -0.69760        1.25900
C         -1.37440       -1.65230        1.44190
C         -1.30770       -2.16490        2.85020
O         -0.25270       -1.43110        3.46530
C          0.31010       -0.50540        2.54130
H          0.34010        2.00420        0.97410
H         -0.03530        2.10480       -0.82360
H         -0.72910       -0.29580       -0.85870
H         -2.07270       -2.02680        0.70360
H         -2.24830       -2.00620        3.40250
H         -1.08870       -3.24390        2.89360
H          1.38210       -0.70590        2.40430
H          0.21900        0.51800        2.93920
