9
gdb 769	10.01649	3.90958	2.81885	2.3205	40.14	-0.2385	-0.0191	0.2194	425.7517	0.064539	-313.573888	-313.56915	-313.568206	-313.6017	16.955
N         -0.02500        1.34580        0.15760
C         -0.01450       -0.02240        0.04980
N         -1.10640       -0.78370        0.03630
N         -0.54790       -1.99720       -0.01500
N          0.76750       -2.00670       -0.03570
N          1.13630       -0.74960        0.00370
H          0.81940        1.78410       -0.17840
H         -0.86910        1.78760       -0.17370
H         -1.09360       -2.84470       -0.03630
