16
gdb 8852	4.77422	1.32106	1.04839	1.7763	65.83	-0.2481	0.0017	0.2498	1095.0799	0.129948	-417.102409	-417.093384	-417.09244	-417.136614	30.305
C         -0.07040        1.35690        0.00380
O         -0.00290       -0.07290       -0.04970
C          0.63600       -0.56470       -1.12940
O          1.12510        0.11540       -2.00220
N          0.64950       -1.94980       -1.09170
C          0.03280       -2.69830        0.00380
C          1.27390       -2.62220       -2.13890
N          1.33010       -3.89110       -2.18030
H          0.93250        1.78990        0.02700
H         -0.60470        1.75070       -0.86400
H         -0.60880        1.58960        0.92250
H         -1.03550       -2.47890        0.06610
H          0.18330       -3.75520       -0.20900
H          0.49930       -2.43960        0.95700
H          1.68080       -1.92390       -2.87070
H          1.82380       -4.18960       -3.01840
