15
gdb 3584	4.91148	3.22618	2.60083	2.2763	59.44	-0.2207	0.0718	0.2925	574.5685	0.128362	-304.643927	-304.638715	-304.637771	-304.672533	21.407
C          0.09930        1.54930        0.08180
C          1.27510        0.64670       -0.01960
C          2.00680        0.29480        1.25450
N          1.43750        0.90590        2.47700
C          1.06730       -0.47550        2.11160
C         -0.25310       -0.58370        1.35650
N         -0.09810        0.09270        0.04550
H         -0.03140        2.07060        1.02440
H         -0.26400        2.06910       -0.80110
H          1.81380        0.51960       -0.95440
H          3.06880        0.08000        1.21400
H          2.13380        0.88710        3.21860
H          1.39410       -1.29540        2.74490
H         -0.47730       -1.63880        1.16350
H         -1.09230       -0.15560        1.91390
