14
gdb 16389	3.00866	2.52128	1.78209	3.3061	56.78	-0.2292	-0.0343	0.1949	744.8822	0.107842	-419.653205	-419.646821	-419.645877	-419.683718	24.687
O          0.05100        1.37900        0.09690
C          0.01160       -0.02560        0.05050
C         -1.39080       -0.58800       -0.24180
C         -1.16370       -2.04100       -0.70410
C         -0.54880       -1.26540       -1.89360
O         -1.53030       -0.19280       -1.65820
C          0.68110       -0.62410       -1.23490
O          1.81490       -0.55040       -1.61140
H         -0.39120        1.69050       -0.70390
H          0.47310       -0.39700        0.96910
H         -2.21780       -0.26890        0.39080
H         -0.52180       -2.69590       -0.10870
H         -2.09410       -2.53700       -0.98280
H         -0.48760       -1.62540       -2.91800
