20
gdb 15994	3.34902	1.51018	1.187	1.2465	75.19	-0.2602	0.0763	0.3365	1068.1005	0.176779	-348.972548	-348.964099	-348.963155	-349.005738	31.735
O         -0.07940        1.43750       -0.20070
C          0.04230        0.03710        0.00910
C         -1.35510       -0.54600        0.05220
C         -2.16410       -0.58050       -1.27820
C         -2.56930       -2.05430       -0.98200
C         -1.51640       -2.07600        0.13550
C         -0.41270       -3.09010        0.26920
C         -1.47070       -2.96210        1.34220
H          0.80470        1.80900       -0.27150
H          0.61550       -0.44020       -0.80230
H          0.57050       -0.17850        0.95370
H         -1.91890       -0.04150        0.84520
H         -2.97360        0.14440       -1.37760
H         -1.51180       -0.49210       -2.15150
H         -3.59200       -2.14520       -0.60200
H         -2.43840       -2.77390       -1.79520
H         -0.44290       -3.95970       -0.38020
H          0.59100       -2.74890        0.50270
H         -1.17990       -2.52310        2.29210
H         -2.21510       -3.74800        1.42620
