18
gdb 18374	3.11231	2.28855	1.45322	0.0926	79.87	-0.2293	0.0255	0.2548	887.9802	0.156537	-310.663317	-310.656505	-310.655561	-310.694267	27.186
C          0.08160        1.47730       -0.36840
C          1.30980        0.65250       -0.01620
C          2.15630        0.99970        1.14560
C          2.01420        0.70590        2.43790
C          0.95570       -0.07370        3.16620
C         -0.37110       -0.40230        2.54150
C         -0.77880       -0.36390        1.27310
C         -0.05290        0.01940        0.04300
H         -0.22930        2.21490        0.36270
H         -0.09070        1.75140       -1.40400
H          1.89620        0.35700       -0.88410
H          3.03230        1.58930        0.87580
H          2.79030        1.07780        3.10580
H          1.40940       -1.01750        3.51720
H          0.74720        0.46280        4.10460
H         -1.10590       -0.73230        3.27500
H         -1.81080       -0.66060        1.08620
H         -0.26620       -0.64760       -0.79020
