19
gdb 15143	6.58764	0.77797	0.75589	3.6172	73.6	-0.2487	0.0343	0.283	1515.1781	0.165667	-365.077445	-365.068595	-365.067651	-365.112451	31.268
O          0.20320        0.21680        0.85880
C          0.11340        1.24230        0.21730
N          1.10200        1.78670       -0.54120
C          2.43620        1.21510       -0.64080
C          3.49400        2.01090        0.13760
C          4.87330        1.39980        0.01900
C          5.75300        1.72080       -1.16580
C          6.10680        2.24470        0.20450
H         -0.81310        1.85010        0.17780
H          0.91390        2.66440       -0.99930
H          2.36060        0.19890       -0.24650
H          2.72330        1.14410       -1.69660
H          3.52120        3.04470       -0.23350
H          3.18970        2.06420        1.19010
H          4.94090        0.38040        0.39180
H          6.36300        0.93150       -1.59080
H          5.37920        2.43200       -1.89600
H          5.97030        3.30490        0.39240
H          6.95690        1.81060        0.71880
