17
gdb 16453	4.17736	1.93814	1.72195	2.5455	67.11	-0.2103	0.0733	0.2837	808.5168	0.143095	-363.780849	-363.774175	-363.773231	-363.811198	27.099
O         -0.17410        1.43380        0.05800
C         -0.07210        0.05610        0.02030
C         -0.34820       -0.75920       -1.21110
C         -1.18360       -0.98210        0.03940
N         -0.51750       -1.75660        1.10670
C          0.41760       -2.86030        0.68640
C          1.63890       -1.89840        0.75370
C          0.62620       -0.77680        1.11030
H          0.46280        1.80360       -0.56270
H         -0.88360       -0.20690       -1.97780
H          0.34490       -1.50040       -1.59730
H         -2.26290       -0.87880        0.02270
H          0.42970       -3.66970        1.42110
H          0.19710       -3.28920       -0.29570
H          2.34650       -2.12630        1.55320
H          2.19670       -1.75880       -0.17610
H          0.78140       -0.21980        2.03880
