16
gdb 8325	5.92924	1.34241	1.33612	4.2488	64.79	-0.272	0.0133	0.2853	953.8109	0.130933	-383.763672	-383.756758	-383.755814	-383.795005	26.357
O         -0.00210        0.15090       -0.76010
C         -0.11600        1.17070       -0.16110
C         -1.23510        2.10730        0.29130
C         -0.07920        2.92740        0.89290
C          0.13850        4.40570        0.52740
C         -0.31080        4.77040        1.97180
C         -0.04050        3.29510        2.38610
O          0.87860        1.93640        0.39300
H         -1.78740        2.57430       -0.52660
H         -1.93430        1.66070        1.00070
H          1.20210        4.60430        0.37070
H         -0.42740        4.80820       -0.31590
H          0.25930        5.54340        2.48850
H         -1.37220        5.02510        2.02170
H         -0.75140        2.79750        3.04970
H          0.96980        3.16330        2.78240
