18
gdb 17845	4.55416	1.81109	1.56162	1.9049	71.57	-0.2306	0.0847	0.3153	863.8715	0.154498	-347.718879	-347.712202	-347.711257	-347.749671	26.753
C         -0.06570        1.56390       -0.14820
C          1.48220        1.59310        0.01010
C          1.40190        0.15750        0.58070
C         -0.04250        0.02180        0.06240
C          2.46860       -0.96000        0.54340
C          3.27660       -0.22650        1.63970
C          1.78050       -0.24200        2.03070
O          1.71290       -1.66300        1.61260
H         -0.57190        2.08510        0.66860
H         -0.47090        1.93000       -1.09360
H          1.99800        1.62400       -0.95500
H          1.90760        2.36940        0.65140
H         -0.77500       -0.41040        0.74650
H         -0.09010       -0.52720       -0.88320
H          2.81960       -1.55790       -0.29940
H          3.91630       -0.86880        2.24590
H          3.74030        0.73110        1.39130
H          1.30340        0.02670        2.97470
