14
gdb 5134	5.59265	1.31571	1.19412	0.8466	68.98	-0.2215	0.0142	0.2357	995.2445	0.107046	-345.396532	-345.389366	-345.388422	-345.428602	26.441
C         -0.01690       -1.25030        0.29850
C          0.00730       -0.06110        0.13240
C          0.03680        1.38820       -0.06710
C          1.41770        1.95900       -0.16340
C          2.10010        2.57510       -1.16530
C          3.38960        2.90740       -0.63250
C          3.38760        2.46610        0.65070
O          2.19380        1.88760        0.95340
H         -0.03410       -2.30160        0.44570
H         -0.49750        1.64590       -0.98840
H         -0.50880        1.87570        0.75250
H          1.73370        2.76630       -2.16180
H          4.20050        3.40550       -1.14010
H          4.11280        2.48270        1.44720
