19
gdb 7632	4.26564	1.24154	1.19329	3.8666	72.09	-0.2458	0.0357	0.2815	1095.4964	0.164793	-365.095946	-365.087266	-365.086322	-365.129294	32.078
C         -0.02950        1.57010        0.07460
C          0.06140        0.03710        0.02090
C          0.97360       -0.49260        1.13480
C         -1.34690       -0.57380        0.03050
C         -1.52150       -2.12290        0.07720
C         -2.32070       -1.88550        1.38130
O         -2.94320       -2.56130        2.15470
N         -2.07080       -0.53350        1.31530
H          0.96150        2.02630       -0.00980
H         -0.65170        1.96580       -0.73540
H         -0.46290        1.90390        1.02510
H          0.50010       -0.24020       -0.94840
H          0.55550       -0.27310        2.12210
H          1.12480       -1.57380        1.06920
H          1.95890       -0.02050        1.07440
H         -1.93110       -0.12370       -0.78270
H         -2.11880       -2.54780       -0.73140
H         -0.60890       -2.70660        0.20150
H         -2.48550        0.23050        1.82900
