17
gdb 19081	3.01672	2.45774	1.70632	1.7993	68.38	-0.213	0.0569	0.2699	805.315	0.140955	-363.741205	-363.733575	-363.732631	-363.773139	29.051
C         -0.09820        1.56330       -0.03050
N          0.16780        0.13310        0.03670
C          1.24470       -0.68410       -0.41040
C          2.71780       -0.36150        0.05780
C          2.97080        0.79270        0.95760
O          2.52420        2.09800        0.73470
C          2.22720       -0.37980        1.52840
C          0.77330       -0.70720        1.01340
H          0.63650        2.09430       -0.63520
H         -1.09510        1.70850       -0.46390
H         -0.09470        2.00820        0.96810
H          1.08110       -1.40810       -1.20270
H          3.53830       -0.92690       -0.36880
H          4.00780        0.77010        1.30680
H          2.41550        2.52110        1.59330
H          2.64270       -0.95210        2.35040
H          0.17450       -1.45210        1.52920
