14
gdb 11583	6.59515	0.84132	0.78813	3.1397	71.47	-0.2504	-0.0275	0.2229	1392.0447	0.106991	-378.692978	-378.684447	-378.683503	-378.727517	28.924
N         -0.00570        1.30440        0.25610
C          0.03980       -0.02420       -0.05610
O          1.07000       -0.61810       -0.31190
C         -1.26210       -0.67250       -0.07110
C         -2.30680       -1.27720       -0.10580
C         -3.53440       -2.01390       -0.12630
C         -3.74500       -3.05290       -1.18490
N         -3.52910       -3.46240        0.20070
H          0.86650        1.79890        0.34870
H         -0.85910        1.74640        0.54970
H         -4.40570       -1.49080        0.25800
H         -4.75140       -3.21180       -1.56110
H         -2.94930       -3.19280       -1.91010
H         -2.56650       -3.76840        0.32500
