17
gdb 5384	4.71238	1.52227	1.249	1.6998	77.36	-0.2474	-0.0198	0.2276	998.7002	0.144706	-326.796896	-326.789698	-326.788754	-326.828956	26.952
C         -0.21800        1.53500        0.07420
C          0.07960        0.03060       -0.02990
C          0.74630       -0.50760        1.21420
N          1.99870       -0.08570        1.44590
C          2.61820       -0.52310        2.54240
C          2.04240       -1.39420        3.46370
C          0.74480       -1.83150        3.22370
C          0.08820       -1.38200        2.08340
H          0.70410        2.08690        0.27440
H         -0.65400        1.91200       -0.85590
H         -0.92100        1.74280        0.88770
H         -0.84490       -0.52430       -0.22240
H          0.74710       -0.14370       -0.88130
H          3.63310       -0.16060        2.69280
H          2.59770       -1.71680        4.33720
H          0.25210       -2.51230        3.91060
H         -0.92430       -1.70360        1.86320
