19
gdb 14919	4.22655	1.39069	1.12077	4.3141	75.36	-0.305	0.0425	0.3476	1069.8179	0.168602	-327.974502	-327.967047	-327.966103	-328.006124	28.861
N          0.00160       -1.17940       -0.03280
C         -0.00660       -0.02350       -0.01280
C         -0.00740        1.43970        0.02760
C         -0.76300        1.96230        1.27240
C         -0.75650        3.49630        1.31050
C          0.67020        4.05960        1.24960
C          1.42610        3.53300        0.02170
C          1.43410        1.99920       -0.02500
H         -0.54230        1.78510       -0.86840
H         -1.78730        1.57730        1.27100
H         -0.27570        1.56340        2.17060
H         -1.33670        3.88160        0.46060
H         -1.26640        3.84200        2.21600
H          0.64440        5.15450        1.23700
H          1.21270        3.77050        2.16010
H          0.95260        3.92000       -0.89110
H          2.45630        3.90450        0.01780
H          1.99530        1.60150        0.82960
H          1.93680        1.63990       -0.92810
