11
gdb 23669	3.87109	1.78643	1.22234	1.0083	55.31	-0.261	-0.0399	0.2211	846.3857	0.07252	-446.700606	-446.694853	-446.693908	-446.730653	21.873
F         -0.00260        0.02640        0.00320
C         -0.02700        1.35830        0.01090
C         -1.24430        2.02110        0.03090
C         -1.18730        3.40610        0.03780
F         -2.31730        4.11140        0.05690
C          0.03740        4.06540        0.02490
N          1.19350        3.40280        0.00570
C          1.16780        2.07040       -0.00130
H         -2.18610        1.48730        0.04070
H          0.06960        5.15070        0.03050
H          2.11530        1.54030       -0.01700
