20
gdb 11081	2.51897	2.10136	2.00763	1.7137	74.24	-0.2354	0.0775	0.3129	872.3359	0.175943	-348.987352	-348.979044	-348.9781	-349.019708	31.673
C         -0.25610        1.56060       -0.00080
C          0.00990        0.07300        0.00260
C          1.07180       -0.49870       -0.98140
C          1.75070       -1.28550        0.18210
C          0.68370       -0.74200        1.16630
C          1.09350       -0.22530        2.52020
O         -0.45990       -1.63220        1.23620
C         -1.17220       -0.88890        0.22330
H          0.67610        2.13420        0.04890
H         -0.77590        1.86220       -0.91880
H         -0.88200        1.86100        0.84670
H          0.67190       -1.10080       -1.80200
H          1.71340        0.27590       -1.40990
H          1.74520       -2.37430        0.10010
H          2.76890       -0.95100        0.40030
H          1.91220        0.49660        2.43480
H          0.25270        0.25580        3.02910
H          1.43770       -1.05480        3.14900
H         -2.07360       -0.41520        0.63670
H         -1.46300       -1.51560       -0.63030
