17
gdb 14491	3.68198	2.04041	1.56013	1.6618	75.04	-0.229	0.0296	0.2586	851.2549	0.141719	-326.605629	-326.598258	-326.597314	-326.636776	29.094
C         -0.15930        1.53840        0.04720
C         -0.00700        0.01770       -0.03800
C         -1.30350       -0.57620        0.27060
C         -2.40650       -0.98860        0.51590
C          0.85380       -0.66400       -1.15560
C          2.07770       -0.10980       -0.40190
N          1.19600       -0.61740        0.75780
C          0.98320       -1.83850       -0.16410
H          0.72720        2.08760       -0.26940
H         -0.99590        1.85340       -0.58250
H         -0.39190        1.82240        1.07750
H         -3.37310       -1.36990        0.73620
H          0.64930       -0.68490       -2.23200
H          3.00960       -0.67220       -0.49150
H          2.28020        0.95950       -0.39260
H          0.09570       -2.42360        0.07450
H          1.87300       -2.46670       -0.24170
