14
gdb 11089	8.97331	1.06987	1.02409	1.8389	71.2	-0.2584	0.	0.2584	1104.3581	0.104705	-345.306827	-345.298922	-345.297978	-345.339795	28.672
C         -0.43010       -1.11520       -0.50970
C         -0.11670        0.00760       -0.21650
C          0.24680        1.36730        0.14320
C         -0.13770        1.84820        1.56740
C          1.39180        1.98890        1.78700
O          1.66130        1.52810        0.43540
C          1.90170        3.32270        2.05400
C          2.31390        4.42810        2.28420
H         -0.70200       -2.10730       -0.77430
H         -0.05700        2.05660       -0.65410
H         -0.69420        2.78360        1.59970
H         -0.62190        1.09750        2.19020
H          1.80140        1.28120        2.51820
H          2.68530        5.40280        2.48510
