12
gdb 21502	5.31921	1.62187	1.2429	3.6699	56.71	-0.258	-0.0338	0.2242	877.5158	0.086652	-410.880319	-410.873457	-410.872513	-410.911783	24.276
N         -0.07970        1.32800        0.00770
C          0.04630       -0.02510        0.00140
O          1.11210       -0.61420       -0.00980
C         -1.24150       -0.76730        0.00920
N         -2.44300       -0.17940        0.02130
N         -3.27820       -1.20320        0.02410
N         -2.73520       -2.41700        0.01510
C         -1.42920       -2.16130        0.00550
H          0.75470        1.88930        0.00230
H         -0.98510        1.76560        0.01620
H         -4.27760       -1.07260        0.03270
H         -0.69220       -2.94640       -0.00350
