19
gdb 8546	3.90193	2.20861	1.81692	1.5887	74.16	-0.2026	0.0814	0.284	806.7524	0.167399	-327.869181	-327.86257	-327.861626	-327.899365	27.286
C         -0.01650        1.55960       -0.02240
C         -0.04560        0.04940        0.00860
C          0.36420       -0.73110       -1.27570
C         -0.72490       -1.80070       -0.99900
C         -0.34830       -2.73980        0.16220
N         -0.68310       -1.70250        1.19730
C          0.42370       -0.69050        1.28320
C         -1.32200       -0.86030        0.09600
H          1.01530        1.92910       -0.07740
H         -0.55310        1.95410       -0.89250
H         -0.47310        1.98710        0.87740
H          0.11480       -0.14780       -2.16830
H          1.40330       -1.06860       -1.35910
H         -1.27050       -2.20810       -1.85100
H         -1.03680       -3.58570        0.26140
H          0.67930       -3.11980        0.20560
H          1.43590       -1.11260        1.29170
H          0.29330       -0.08380        2.18680
H         -2.35700       -0.53340        0.19860
