18
gdb 13338	5.26222	1.13818	0.99182	2.8973	74.31	-0.244	-0.0207	0.2232	1170.1995	0.153706	-347.827409	-347.81945	-347.818506	-347.860885	28.679
O         -0.19020       -0.07610       -0.07460
C         -0.07010        1.12090       -0.01950
C          1.24070        1.87040       -0.06050
C          1.30060        2.86450       -1.23930
C          2.56090        3.77190       -1.21890
C          2.95550        3.97320       -2.70340
C          2.27850        2.81070       -3.39150
C          1.38580        2.21330       -2.60520
H         -0.96770        1.78090        0.05910
H          1.32550        2.43480        0.87960
H          2.06270        1.15020       -0.10880
H          0.39210        3.48680       -1.19270
H          2.39190        4.71180       -0.68680
H          3.36800        3.24440       -0.69860
H          2.57990        4.92730       -3.09980
H          4.04100        3.98710       -2.85110
H          2.48560        2.53930       -4.42080
H          0.75620        1.37680       -2.88920
