12
gdb 19784	3.42359	2.62755	1.78746	3.5541	53.11	-0.2504	-0.0595	0.1909	697.8175	0.083809	-418.433717	-418.427942	-418.426997	-418.463625	22.071
O          0.00150        0.01560       -0.01800
C         -0.01460        1.21760        0.01900
C         -1.26180        2.09110       -0.05580
O         -1.34240        3.13100        0.92880
C         -0.81860        3.46910       -0.34640
C          0.71460        3.49040       -0.37040
O          1.28730        3.16760        0.88760
C          1.20480        2.12540       -0.09450
H         -2.20000        1.64590       -0.37380
H         -1.39480        4.16690       -0.94600
H          1.25210        4.20370       -0.98750
H          2.14460        1.70630       -0.44190
