18
gdb 14140	4.12295	1.66429	1.44515	1.2975	75.66	-0.207	0.0177	0.2247	935.5984	0.153491	-347.795501	-347.787849	-347.786905	-347.827442	29.092
C         -0.00560        1.53160        0.17130
C         -0.00850        0.02320        0.07140
C          1.23820       -0.72230       -0.37050
C          0.77930       -0.80630        1.06380
O          1.55320       -0.13000        2.03790
C          1.49490       -0.84470        3.27320
C          0.66120       -2.06290        2.98180
C          0.26140       -2.02810        1.71400
H          0.93790        1.89060        0.58940
H         -0.14600        1.99220       -0.81280
H         -0.81090        1.88410        0.82500
H         -0.95310       -0.41270       -0.24660
H          1.14250       -1.59540       -1.00790
H          2.13090       -0.12900       -0.54160
H          2.51610       -1.09480        3.60020
H          1.05120       -0.20750        4.05500
H          0.43910       -2.82300        3.71910
H         -0.35430       -2.75330        1.19820
