13
gdb 15101	8.94546	0.75592	0.71687	6.0138	72.52	-0.2828	-0.0425	0.2403	1463.5323	0.094798	-361.423508	-361.415769	-361.414824	-361.45664	26.563
N          0.07450       -3.66640        0.32870
C          0.05260       -2.51120        0.20800
C          0.02480       -1.15400        0.06270
C         -0.00610        0.04640       -0.06640
C         -0.02110        1.49120       -0.23410
C          1.37680        2.09420       -0.26510
C          1.61900        3.45900        0.21410
O          1.99350        2.32020        0.99430
H         -0.54330        1.73980       -1.16780
H         -0.58790        1.95020        0.58460
H          2.03710        1.68030       -1.02710
H          2.44280        4.03790       -0.19890
H          0.79050        4.04430        0.61100
