17
gdb 17413	4.13547	1.65151	1.60755	1.1059	68.39	-0.2301	0.0723	0.3024	871.4391	0.142112	-363.788698	-363.781505	-363.780561	-363.81982	28.216
O         -0.11940        1.41360       -0.11100
C         -0.06960        0.01810       -0.03080
C         -0.54300       -0.68610        1.22850
C         -1.38300       -0.68470       -0.01150
C         -2.78460       -0.10210       -0.19860
C         -3.04640       -1.33560       -1.06560
C         -2.03510       -1.47130       -2.13050
N         -1.67510       -1.93170       -0.76930
H          0.57410        1.76980        0.45460
H          0.73970       -0.45570       -0.58800
H         -0.05320       -1.61480        1.50280
H         -0.87480       -0.06670        2.05620
H         -3.36680       -0.09340        0.72560
H         -2.86520        0.87300       -0.68600
H         -3.94150       -1.94770       -1.03100
H         -2.14860       -2.29090       -2.83340
H         -1.54350       -0.58670       -2.52960
