14
gdb 15735	6.96923	1.05095	0.98625	4.5279	63.77	-0.2755	-0.0487	0.2268	1134.1431	0.106819	-378.721638	-378.713789	-378.712845	-378.754877	27.047
O         -0.06060        0.10520       -0.62970
C         -0.00440        1.23670       -0.21080
C          1.29080        1.85680        0.33450
C          2.46490        1.01040        0.16890
N          3.40910        0.35840        0.04390
C         -1.19810        2.13290       -0.17880
C         -2.00770        2.19410       -1.44360
N         -2.51960        1.49910       -0.27510
H          1.45650        2.82570       -0.15280
H          1.14200        2.07890        1.39940
H         -1.14150        3.01270        0.45580
H         -2.50560        3.12660       -1.69240
H         -1.64550        1.60930       -2.28440
H         -2.36300        0.49720       -0.39260
