16
gdb 7472	3.95372	1.40904	1.30154	2.8782	64.37	-0.2609	0.017	0.2778	966.7738	0.130679	-379.904078	-379.895991	-379.895046	-379.936931	29.034
N         -0.09490        1.57320       -0.06760
C         -0.03650        0.12690       -0.00410
C          0.88880       -0.54460       -1.05350
C          2.26380       -0.06550       -0.93910
N          3.33410        0.35220       -0.81150
C          0.15930       -0.46010        1.41470
O         -0.99970       -1.30640        1.25940
C         -1.40430       -0.59160        0.07610
H          0.83200        1.96940        0.07170
H         -0.40220        1.88050       -0.98720
H          0.87470       -1.63320       -0.92890
H          0.52110       -0.32870       -2.06400
H          1.07160       -1.03610        1.60340
H          0.02140        0.29090        2.20130
H         -2.23050        0.10320        0.27020
H         -1.67070       -1.26810       -0.74480
