14
gdb 21853	4.08127	2.0761	1.40065	1.5887	64.93	-0.2056	0.0318	0.2374	834.1095	0.109403	-378.693802	-378.687145	-378.686201	-378.724907	24.568
O          0.00230        1.44150       -0.07720
C          0.06950        0.08170       -0.03050
C          0.17960       -0.79210       -1.09750
C          0.29520       -1.34060       -2.51320
C          0.32580       -2.76540       -1.81860
N          0.20960       -2.02440       -0.55570
N          0.13200       -2.09440        0.76850
C          0.04470       -0.78730        1.09670
H         -0.06730        1.77560        0.82210
H         -0.56720       -1.17510       -3.16290
H          1.20900       -1.08350       -3.05370
H         -0.52640       -3.41540       -2.03310
H          1.26010       -3.32280       -1.92280
H         -0.03380       -0.50300        2.13720
