16
gdb 13261	5.77964	0.98691	0.90938	3.1088	62.2	-0.2607	0.0016	0.2624	1226.1598	0.129698	-420.86817	-420.860046	-420.859102	-420.902607	27.218
O          0.10210        0.20600       -0.66060
C          0.19630        1.38950       -0.54330
O          0.99840        1.96990        0.37080
C          1.04900        3.40040        0.43000
C          2.46770        3.87700        0.18020
C          2.93580        3.83590       -1.29070
O          2.85650        5.27290       -1.39870
C          2.60270        5.40760        0.01310
H         -0.35490        2.12750       -1.15920
H          0.36110        3.83410       -0.30880
H          0.70830        3.69740        1.42790
H          3.14540        3.41650        0.90100
H          3.95880        3.46870       -1.43790
H          2.27290        3.33000       -2.00380
H          1.70440        6.00460        0.21750
H          3.45210        5.85380        0.54540
