17
gdb 10352	2.75986	1.65371	1.10022	5.3816	61.09	-0.2481	0.0236	0.2717	1049.1541	0.142009	-438.16484	-438.155998	-438.155054	-438.198565	32.173
N          0.03920        1.27200        0.19590
C          0.06830       -0.05120       -0.08270
O          1.09570       -0.62230       -0.43330
C         -1.27420       -0.79290        0.04640
C         -1.03620       -2.31740        0.06790
O         -0.41940       -2.78540       -1.10440
C         -2.10820       -0.35670        1.25460
O         -2.59340        0.97230        1.04110
H          0.89040        1.79970        0.09250
H         -0.82130        1.71280        0.48700
H         -1.85450       -0.55970       -0.85650
H         -0.45390       -2.57720        0.96820
H         -2.00360       -2.82630        0.14770
H          0.41500       -2.29160       -1.14870
H         -2.95330       -1.04970        1.37050
H         -1.50420       -0.40780        2.17230
H         -3.06250        1.25400        1.83240
