18
gdb 15366	6.00022	0.87075	0.84061	3.158	69.9	-0.2508	-0.0259	0.225	1387.8945	0.151117	-384.932559	-384.923489	-384.922545	-384.967581	31.234
C         -0.16340        1.44780       -0.51590
C          0.06100        0.14150        0.25690
C         -1.24180       -0.55950        0.55550
O         -1.89820       -1.23040       -0.52980
C         -1.45070       -2.01780        0.58130
C         -0.38250       -3.05510        0.30330
C         -0.93870       -4.21300       -0.50660
O         -0.81790       -5.37290       -0.20910
H          0.78620        1.94870       -0.72420
H         -0.66230        1.24930       -1.46900
H         -0.79100        2.14190        0.05330
H          0.71990       -0.51550       -0.31830
H          0.56740        0.34990        1.20830
H         -1.92890        0.02990        1.16850
H         -2.26560       -2.38400        1.20970
H          0.42850       -2.60780       -0.28290
H          0.03480       -3.44870        1.23530
H         -1.48080       -3.90370       -1.42720
