16
gdb 7735	3.40953	1.81226	1.22795	3.8738	69.67	-0.2316	-0.0512	0.1804	962.4027	0.130447	-383.76971	-383.762211	-383.761267	-383.801536	27.662
C         -0.02170        1.50480        0.05230
C         -0.04230        0.00810       -0.02620
C         -0.15420       -0.67670       -1.17590
C         -0.04010       -2.14200       -1.20690
O         -0.05260       -2.79260       -2.23250
C          0.18290       -2.80510        0.15210
O         -0.37240       -2.06660        1.22290
C          0.09060       -0.73840        1.27950
H          0.88110        1.85570        0.56810
H         -0.05060        1.96110       -0.93940
H         -0.87530        1.87580        0.63330
H         -0.26930       -0.17870       -2.13440
H         -0.28990       -3.78910        0.15420
H          1.27060       -2.95000        0.28730
H          1.14800       -0.69810        1.60830
H         -0.49920       -0.24080        2.05770
