20
gdb 9853	3.23207	1.37989	1.32076	1.5532	71.28	-0.2535	0.0822	0.3357	1074.8277	0.173739	-386.115305	-386.105642	-386.104698	-386.149823	34.472
C          0.18330        1.28210        0.34430
O          0.03920       -0.09830        0.10350
C          0.50080       -0.53440       -1.16800
C          2.02820       -0.53430       -1.28300
C         -0.09290       -1.92310       -1.38110
C          0.23110       -2.97630       -0.34670
C         -1.31170       -2.03910       -2.19220
O         -0.02870       -2.35030       -2.74910
H          1.23510        1.59200        0.42420
H         -0.29390        1.88320       -0.44570
H         -0.31240        1.49510        1.29480
H          0.09220        0.12270       -1.95300
H          2.32200       -0.99110       -2.23230
H          2.42940        0.48260       -1.26130
H          2.48280       -1.09710       -0.46270
H         -0.07470       -2.63270        0.64480
H         -0.28610       -3.91030       -0.57890
H          1.30540       -3.18400       -0.31930
H         -1.97450       -2.89140       -2.04820
H         -1.78950       -1.14420       -2.58880
