14
gdb 13756	3.70261	1.43937	1.20318	6.1594	60.2	-0.2408	-0.0264	0.2144	983.382	0.106206	-415.866212	-415.858	-415.857056	-415.900071	28.53
N         -0.04760        1.35890       -0.49850
C         -0.06900        0.32830        0.39480
O          0.85000        0.09320        1.15310
C         -1.34930       -0.47400        0.37720
N         -1.20560       -1.92920        0.44370
C         -1.80380       -1.24090        1.59100
C         -1.02160       -1.28370        2.87270
O         -1.52770       -1.00800        3.93210
H          0.79750        1.90230       -0.56920
H         -0.75710        1.48400       -1.19860
H         -2.15180       -0.07300       -0.24050
H         -1.91920       -2.38210       -0.12070
H         -2.88120       -1.27650        1.74090
H          0.02660       -1.60840        2.76510
