18
gdb 18530	5.40153	1.15237	1.07143	1.2202	68.22	-0.2357	0.0712	0.3069	1148.5804	0.15289	-384.877095	-384.869092	-384.868147	-384.910153	29.011
C         -0.26920        1.31180        0.45200
O         -0.16970       -0.08770        0.56170
C          1.15920       -0.55350        0.49320
C          1.11410       -2.06340        0.63190
O          2.41560       -2.68480        0.43540
C          2.25280       -3.42560        1.65160
C          2.21040       -2.50940        2.82950
C          0.95910       -2.72820        1.99940
H          0.13000        1.67530       -0.50820
H         -1.32900        1.57070        0.51470
H          0.27100        1.82500        1.26320
H          1.62520       -0.29400       -0.47290
H          1.77770       -0.10480        1.28670
H          0.39530       -2.46690       -0.09180
H          2.55970       -4.46460        1.65610
H          2.18500       -2.99530        3.80010
H          2.75680       -1.57100        2.80140
H          0.03640       -3.11170        2.41070
