15
gdb 1062	6.87706	1.90268	1.62971	3.33	62.72	-0.2162	0.0365	0.2527	778.6349	0.127344	-304.745635	-304.738997	-304.738053	-304.776487	24.269
C         -0.17810        1.55940        0.05320
C          0.06960        0.04400       -0.01100
C          0.71290       -0.49290        1.23030
C          0.21650       -1.39580        2.13580
N          1.19730       -1.53950        3.09540
C          2.23020       -0.72860        2.73460
N          1.97450       -0.08490        1.62070
H          0.76000        2.08810        0.24170
H         -0.60170        1.92860       -0.88620
H         -0.87230        1.80890        0.86230
H         -0.87460       -0.48480       -0.18450
H          0.71450       -0.17540       -0.87100
H         -0.71380       -1.93690        2.18660
H          1.15640       -2.13500        3.90490
H          3.13500       -0.65340        3.31950
