13
gdb 11687	5.42944	1.4295	1.30731	3.2878	67.26	-0.2403	-0.0312	0.2092	907.9661	0.094124	-361.394994	-361.388008	-361.387064	-361.426164	26.511
O          0.05620        0.02400       -0.07420
C          0.02400        1.21170        0.04380
C         -1.13320        2.24550        0.16190
C         -0.06610        3.33570       -0.06660
N          0.86100        3.20270        1.07650
C          1.05740        2.30910       -0.10460
C         -0.19390        4.52860       -0.82460
C         -0.32540        5.54460       -1.45580
H         -1.83360        2.12870       -0.66880
H         -1.66740        2.30200        1.11160
H          1.56240        3.93990        0.99070
H          1.98790        2.31020       -0.65820
H         -0.43750        6.43970       -2.01640
