17
gdb 17547	4.56098	1.74508	1.6141	2.0196	66.7	-0.2337	0.0771	0.3108	840.4561	0.143778	-363.820129	-363.813598	-363.812654	-363.850679	26.064
C         -0.63710        1.26130        0.00730
O          0.78790        1.11690       -0.00860
C         -0.00420       -0.06420       -0.00020
C          0.05650       -0.98540        1.21780
C         -0.44220       -2.31160        0.67470
C         -1.69830       -2.30210       -0.11870
N         -0.39980       -2.31560       -0.80950
C          0.04680       -0.97930       -1.22960
H         -1.05480        1.65900        0.93220
H         -1.07560        1.65890       -0.90780
H          1.09730       -1.07550        1.54940
H         -0.53000       -0.61160        2.06180
H         -0.12030       -3.22660        1.16290
H         -2.27730       -3.21420       -0.22880
H         -2.28970       -1.38840       -0.13550
H         -0.55870       -0.61160       -2.06360
H          1.08440       -1.05540       -1.57480
