15
gdb 20980	4.75371	1.66902	1.26057	1.787	63.93	-0.2192	-0.0092	0.21	929.918	0.119567	-395.975536	-395.967858	-395.966914	-396.007824	26.716
C         -0.09290        1.42860       -0.01520
N          0.18860        0.00320       -0.02950
C          0.06280       -0.71270        1.22770
C          0.03550       -0.70250       -1.18240
N         -0.08950       -2.01820       -1.21630
O         -0.13500       -2.29040       -2.60540
C         -0.05850       -1.11560       -3.21420
N          0.04390       -0.09420       -2.42870
H          0.55100        1.91570        0.72400
H          0.11200        1.84860       -0.99880
H         -1.14030        1.64180        0.24790
H         -0.98700       -0.87840        1.51240
H          0.55040       -1.68540        1.14510
H          0.55000       -0.13230        2.01610
H         -0.08660       -1.11590       -4.29470
