12
gdb 8606	2.11892	2.09359	1.50261	4.3205	64.44	-0.3127	-0.0185	0.2943	888.8738	0.081378	-340.357948	-340.349655	-340.348711	-340.390469	29.08
C         -0.02430        1.54880        0.00130
C          0.00600       -0.01120        0.00840
C          0.71430       -0.51060        1.19460
C          1.29780       -0.88410        2.17290
C         -1.38470       -0.52150        0.00580
N         -2.48020       -0.88430        0.01590
C          0.68840       -0.48670       -1.21740
N          1.23550       -0.82190       -2.17670
H          1.00000        1.92380       -0.00590
H         -0.55300        1.90510       -0.88440
H         -0.53490        1.89800        0.89990
H          1.81300       -1.22910        3.03640
