21
gdb 8938	2.54857	1.4508	1.18934	3.9071	76.12	-0.2385	0.034	0.2725	1142.7593	0.186942	-366.298534	-366.288456	-366.287512	-366.333864	35.387
C          0.01140        1.58080        0.06240
C          0.00180        0.05410       -0.03410
C         -1.40400       -0.57090        0.05420
C         -1.35990       -2.09150       -0.15600
N         -2.10320       -0.20900        1.28920
C         -1.56850       -0.61030        2.58080
C         -3.27800        0.48610        1.25220
O         -3.93920        0.81900        2.21410
H          1.02900        1.97190       -0.02820
H         -0.58990        2.03180       -0.73490
H         -0.39670        1.92490        1.01730
H          0.44060       -0.26020       -0.98860
H          0.64360       -0.37700        0.74450
H         -2.00740       -0.13870       -0.75420
H         -0.72360       -2.58550        0.58500
H         -2.36250       -2.52340       -0.08870
H         -0.95190       -2.32260       -1.14460
H         -0.57910       -0.17450        2.75700
H         -2.25890       -0.24730        3.34220
H         -1.48750       -1.69950        2.66070
H         -3.57720        0.72450        0.21260
