16
gdb 1666	4.81876	1.79181	1.50749	2.0557	57.51	-0.2358	0.0132	0.2491	856.831	0.135627	-362.941781	-362.933249	-362.932304	-362.974805	29.208
C         -0.01240        1.34400        0.02770
O          0.07510       -0.08640       -0.02450
C          0.69960       -0.58670       -1.10490
O          1.17690        0.09200       -1.98080
C          0.67450       -2.10860       -1.10380
C         -0.70640       -2.57490       -1.61500
N          1.81370       -2.57930       -1.88560
H          0.98560        1.78890        0.04200
H         -0.55610        1.72940       -0.83850
H         -0.54690        1.57490        0.94900
H          0.78320       -2.43900       -0.06410
H         -0.87660       -2.21970       -2.63670
H         -0.74800       -3.66880       -1.62000
H         -1.51470       -2.20720       -0.97550
H          1.63630       -3.51710       -2.23020
H          1.92240       -1.97010       -2.69200
