12
gdb 21593	3.61346	2.00489	1.29129	6.3072	63.71	-0.2221	-0.0249	0.1971	853.7918	0.086784	-373.731409	-373.724585	-373.723641	-373.762366	25.177
N          0.00600        1.41260        0.16800
C         -0.01860        0.02880        0.04790
C         -1.10190       -0.83010        0.03070
N         -0.58230       -2.09150       -0.02350
N          0.74250       -2.13470       -0.04100
C          1.10740       -0.84220       -0.00020
C          2.46430       -0.43180       -0.01720
N          3.54410       -0.01240       -0.03730
H          0.88730        1.82450       -0.10870
H         -0.76710        1.88780       -0.27500
H         -2.16340       -0.64770        0.05770
H         -1.09330       -2.95820       -0.05030
