8
gdb 7	80.46225	19.90649	19.90633	0.	23.95	-0.3385	0.1041	0.4426	109.5031	0.074542	-79.764152	-79.760666	-79.759722	-79.787269	10.098
C         -0.01870        1.52560        0.01040
C          0.00210       -0.00390        0.00200
H          0.99490        1.93970        0.00290
H         -0.54210        1.92360       -0.86510
H         -0.52520        1.91420        0.90000
H          0.52550       -0.40190        0.87750
H         -1.01150       -0.41800        0.00950
H          0.50860       -0.39250       -0.88760
