20
gdb 11536	5.91709	0.91926	0.8711	2.3649	75.62	-0.2392	-0.0054	0.2337	1400.6761	0.175077	-349.018612	-349.009269	-349.008325	-349.05402	33.036
C          0.25820        1.51370        0.17890
C          0.30450        0.00290       -0.03410
C          0.91060       -0.40950       -1.37020
O          1.44380        0.38890       -2.10630
C          0.78430       -1.88750       -1.73620
C          1.69030       -2.31430       -2.86620
C          3.05150       -2.89070       -2.57330
C          1.95560       -3.77600       -3.11670
H          1.25730        1.94700        0.09210
H         -0.37010        1.99600       -0.57490
H         -0.14320        1.75460        1.16730
H          0.89890       -0.48620        0.75160
H         -0.69400       -0.44780        0.04730
H          0.95250       -2.49940       -0.84040
H         -0.27260       -2.05090       -2.00020
H          1.62760       -1.67300       -3.73840
H          3.87470       -2.62450       -3.22650
H          3.33680       -3.02060       -1.53400
H          1.50790       -4.49900       -2.44200
H          2.02880       -4.11790       -4.14320
