19
gdb 5972	3.42532	1.21405	1.12916	3.7967	72.58	-0.2725	0.0361	0.3086	1156.9909	0.162965	-365.075458	-365.065639	-365.064695	-365.109884	34.467
C         -0.02730        1.40450        0.00960
O          0.00080       -0.00530        0.00200
C         -1.28270       -0.58060        0.01130
C         -1.12200       -2.11890        0.00130
C         -0.38640       -2.57290       -1.27890
C         -0.36220       -2.58680        1.26230
C         -2.47680       -2.69320        0.01100
N         -3.54370       -3.13810        0.01960
H          1.00890        1.74970        0.00160
H         -0.54510        1.80490       -0.87540
H         -0.52810        1.79560        0.90840
H         -1.84490       -0.27120        0.90730
H         -1.86200       -0.26150       -0.87040
H          0.59840       -2.10310       -1.30990
H         -0.26530       -3.65890       -1.28990
H         -0.94120       -2.28050       -2.17470
H         -0.89980       -2.30420        2.17170
H         -0.24110       -3.67280        1.25920
H          0.62310       -2.11730        1.27980
