15
gdb 19172	3.39895	2.01638	1.50594	1.8271	62.4	-0.246	-0.0116	0.2343	837.8297	0.118135	-399.731098	-399.724006	-399.723061	-399.76214	27.23
C          0.07740        1.43300       -0.13890
N          0.03960       -0.01670        0.07080
C         -1.14820       -0.61650        0.82640
C         -0.20540       -1.84730        1.06200
O          0.10020       -2.65040       -0.02420
C          0.69640       -0.59210        1.32740
C         -0.50650        0.01670        2.07990
O         -0.75740        0.77150        2.96690
H          1.08210        1.70620       -0.47440
H         -0.62620        1.68370       -0.93810
H         -0.17170        2.03080        0.74960
H         -2.16100       -0.58370        0.42940
H         -0.42990       -2.48130        1.91930
H          0.28910       -2.03620       -0.74960
H          1.76980       -0.53170        1.49700
