18
gdb 546	15.76768	1.26349	1.21402	0.8667	61.68	-0.2481	0.0928	0.3409	1024.2518	0.164575	-272.836211	-272.828014	-272.82707	-272.868652	27.758
C         -0.03640        1.51140        0.04350
C          0.01990       -0.01650       -0.02530
C          0.72870       -0.51840       -1.27580
O          0.73770       -1.92870       -1.26160
C          1.37470       -2.49610       -2.38600
C          1.32430       -4.00960       -2.26120
H          0.96820        1.94880        0.05160
H         -0.57240        1.93100       -0.81500
H         -0.54990        1.84550        0.94960
H          0.53860       -0.41810        0.85290
H         -0.99270       -0.43570       -0.00780
H          0.21670       -0.14630       -2.18140
H          1.76160       -0.12770       -1.31330
H          0.87480       -2.16800       -3.31390
H          2.42050       -2.14810       -2.44820
H          1.83420       -4.33640       -1.35040
H          0.28780       -4.35600       -2.21530
H          1.81090       -4.48060       -3.12060
