18
gdb 15587	3.07927	1.75001	1.44555	4.6555	71.15	-0.2331	0.0268	0.26	941.3934	0.155484	-343.99465	-343.986623	-343.985679	-344.028112	29.12
C         -0.39910        1.43540        0.36470
N          0.10510        0.11100        0.01160
C         -0.94970       -0.85180       -0.33440
C         -1.45160       -1.44900        1.00140
C         -0.20650       -1.39650        1.92100
C          0.83160       -0.53210        1.11520
C          1.91530       -1.37400        0.57930
N          2.76210       -2.04950        0.17630
H          0.44210        2.09590        0.59500
H         -0.92410        1.85660       -0.49680
H         -1.09100        1.45080        1.22560
H         -1.73130       -0.36450       -0.92120
H         -0.50870       -1.63980       -0.95610
H         -2.26100       -0.84110        1.41530
H         -1.83790       -2.46350        0.87980
H         -0.42670       -0.92030        2.87850
H          0.19600       -2.38810        2.13480
H          1.29690        0.23060        1.74560
