15
gdb 7407	2.85418	1.83153	1.27023	0.8927	58.7	-0.2515	-0.0349	0.2166	944.785	0.116994	-436.995806	-436.987258	-436.986314	-437.029095	30.763
C          0.81090        0.98720        0.40190
C          0.09610       -0.26120       -0.02520
O          0.65470       -1.26350       -0.42080
C         -1.44540       -0.27810       -0.00090
O         -1.90490       -1.45650       -0.60390
C         -1.96480       -0.11340        1.45200
N         -2.63200       -1.19800        1.89970
O         -1.76560        0.90320        2.09150
H          1.87610        0.78700        0.52270
H          0.67520        1.75180       -0.37310
H          0.36040        1.38320        1.31570
H         -1.80700        0.60770       -0.54270
H         -1.09130       -1.95910       -0.79800
H         -2.82050       -1.94820        1.25470
H         -3.06750       -1.16540        2.80600
