16
gdb 1525	7.97544	1.26136	1.11798	1.8885	57.93	-0.2448	0.0173	0.2621	1055.0356	0.135625	-362.946034	-362.937343	-362.936399	-362.980507	28.803
C          0.01560        1.49190        0.13080
C          0.05820       -0.01720       -0.01040
O          0.68830       -0.54990        1.17350
C          0.81420       -1.88810        1.22540
O          0.43880       -2.63920        0.35960
C          1.49330       -2.32340        2.52250
N          1.67620       -3.75580        2.67340
H          1.02420        1.90410        0.22450
H         -0.45720        1.93400       -0.75120
H         -0.55910        1.78560        1.01370
H         -0.94300       -0.44980       -0.10260
H          0.63190       -0.33190       -0.88780
H          2.46230       -1.81410        2.58260
H          0.90340       -1.93140        3.35940
H          0.77170       -4.21300        2.59560
H          2.20740       -4.10510        1.88020
