17
gdb 14195	3.78235	2.24074	2.10275	1.6771	66.83	-0.229	0.0794	0.3084	742.3663	0.144194	-363.813655	-363.807498	-363.806554	-363.843497	25.561
C          0.06160        1.49190       -0.07700
C          0.00060       -0.00250        0.03320
C         -1.31430       -0.78810       -0.15400
C         -0.71680       -2.10170        0.39510
N         -0.36650       -1.78640        1.81120
C          0.62560       -0.87090        1.24220
C          0.81540       -1.78900        0.03250
O          0.86710       -0.72250       -0.90800
H          1.08410        1.85200        0.06920
H         -0.27950        1.82450       -1.06320
H         -0.58080        1.95440        0.67950
H         -2.15670       -0.43810        0.45090
H         -1.59720       -0.81380       -1.20880
H         -1.21230       -3.05090        0.19680
H         -1.12190       -1.34210        2.33360
H          1.40870       -0.43910        1.86500
H          1.54040       -2.58890       -0.09590
