20
gdb 18805	2.89332	2.80626	2.25057	0.0341	76.7	-0.2594	0.0879	0.3473	754.8353	0.181809	-311.854645	-311.848811	-311.847867	-311.884003	25.812
C         -0.05530        1.49360        0.21090
C          1.48320        1.44850       -0.02910
C          2.20060        1.19010        1.30220
C          1.46240        0.04710        2.04500
C          0.80790       -0.86820        1.00210
C          1.82490       -1.16310       -0.14050
C          1.28060        0.09810       -0.83250
C         -0.04980       -0.02550       -0.02960
H         -0.41330        1.89360        1.16590
H         -0.58110        2.00530       -0.60120
H          1.93110        2.27840       -0.58070
H          3.24510        0.91690        1.11520
H          2.22030        2.10230        1.90920
H          2.15610       -0.52350        2.67280
H          0.69720        0.45400        2.71550
H          0.30820       -1.72290        1.46400
H          2.88660       -1.22610        0.12230
H          1.55240       -2.05700       -0.71000
H          1.31740        0.19920       -1.91890
H         -0.93640       -0.53360       -0.41390
