16
gdb 7995	3.35615	1.86914	1.32238	2.9183	61.28	-0.2676	0.0056	0.2732	934.4691	0.129549	-420.932076	-420.924227	-420.923282	-420.964408	28.379
C         -0.09040        1.56990        0.18500
C          0.06230        0.08640       -0.04300
O          1.02410       -0.17070       -1.03810
C          1.63610       -1.41280       -0.71300
C          3.08980       -1.44550       -1.14730
C          1.44820       -1.50580        0.80200
O          1.97790       -2.24490        1.57740
O          0.53750       -0.56200        1.15120
H          0.86950        2.00000        0.48040
H         -0.42740        2.04680       -0.73900
H         -0.82790        1.75650        0.96910
H         -0.89900       -0.38680       -0.30310
H          1.08070       -2.24850       -1.17250
H          3.63450       -0.59940       -0.72040
H          3.54910       -2.37260       -0.79550
H          3.16550       -1.39970       -2.23620
