14
gdb 7730	3.41992	1.9738	1.29534	3.3135	59.51	-0.2495	-0.0271	0.2224	877.07	0.109737	-415.924117	-415.917389	-415.916445	-415.955291	25.077
O         -0.01190       -0.06090       -0.04450
C         -0.05640        1.14400        0.01860
C         -1.34910        1.94520        0.04570
N         -1.14920        3.22460        0.70980
C         -0.13320        4.03160        0.05080
C          1.20130        3.30190        0.02470
O          2.27160        3.85740       -0.03500
N          1.10250        1.91400        0.03470
H         -1.69160        2.02910       -1.00500
H         -2.08770        1.34780        0.58350
H         -2.02290        3.73360        0.76910
H         -0.37240        4.29170       -0.99960
H          0.02120        4.96690        0.59210
H          1.97800        1.40390        0.00480
