14
gdb 11581	6.2566	0.83236	0.7752	2.38	71.02	-0.2627	-0.0582	0.2045	1416.3863	0.104341	-382.500217	-382.491686	-382.490742	-382.534957	28.427
C         -1.06940        0.75990        0.14380
C          0.34170        0.24950       -0.06000
O          1.25420        0.49470        0.69950
C          0.54320       -0.56710       -1.24390
C          0.70710       -1.24710       -2.22870
C          0.94630       -2.04420       -3.39730
C          0.22410       -3.31650       -3.61700
O         -0.11850       -2.15510       -4.35530
H         -1.37980        1.36040       -0.71810
H         -1.76740       -0.08130        0.21420
H         -1.11190        1.35960        1.05400
H          1.93490       -1.93920       -3.84160
H          0.72170       -4.10790       -4.17550
H         -0.50760       -3.64100       -2.88000
