16
gdb 9791	3.15651	1.78835	1.35197	4.8254	64.55	-0.2757	0.0213	0.2969	924.4206	0.130267	-379.906936	-379.898835	-379.89789	-379.939299	29.988
C         -0.08350        1.53950       -0.21860
C         -0.01990        0.03950       -0.04570
C          0.81410       -0.77710       -0.96220
N          1.20440       -0.60180        0.45200
C         -1.27060       -0.63330        0.55140
O         -1.05140       -1.99360        0.81610
C         -1.69540        0.08300        1.78140
N         -2.01420        0.64640        2.73870
H          0.83260        1.91290       -0.68570
H         -0.92420        1.82260       -0.86180
H         -0.21470        2.04490        0.74290
H          0.51240       -1.78630       -1.22170
H          1.38090       -0.24930       -1.72390
H          1.96030        0.06840        0.55680
H         -2.09540       -0.56750       -0.16820
H         -0.14900       -2.03490        1.17730
