13
gdb 3966	5.1736	1.61298	1.22962	2.8286	68.93	-0.1864	-0.0289	0.1575	900.2248	0.097542	-394.740014	-394.733273	-394.732329	-394.770823	25.456
O         -0.13400        1.36200       -0.10530
N          0.05960       -0.03870       -0.08650
C         -1.06730       -0.65720        0.06980
C         -1.09480       -2.10360        0.11690
C         -2.27700       -2.73070        0.28000
N         -3.44020       -2.01360        0.39990
N         -3.49980       -0.66680        0.36690
C         -2.38360       -0.02860        0.21150
H          0.76510        1.68220       -0.22480
H         -0.17280       -2.66130        0.02140
H         -2.38800       -3.80730        0.32600
H         -4.32970       -2.46490        0.52280
H         -2.45880        1.05020        0.18840
