14
gdb 3111	6.14116	2.11955	1.84486	1.8787	64.9	-0.2432	0.0319	0.275	705.8501	0.113648	-287.362939	-287.35666	-287.355716	-287.392753	24.245
C          0.02210       -1.21190        0.04240
C          0.04220       -0.00930        0.02380
C          0.03640        1.41400       -0.05260
C         -0.71690        2.25290       -1.10870
C          0.45100        3.29250       -1.08480
C          1.16060        2.43540       -0.02980
N          0.32690        2.21800        1.13910
H          0.01210       -2.27310        0.07470
H         -0.80010        1.74420       -2.07060
H         -1.71030        2.59650       -0.80290
H          0.98370        3.33580       -2.03720
H          0.20930        4.31350       -0.77160
H          2.22760        2.27510        0.07290
H         -0.36180        2.95650        1.27980
