18
gdb 19051	3.53097	2.23509	2.05182	1.6928	69.34	-0.2217	0.0867	0.3085	769.1526	0.155761	-347.77349	-347.767075	-347.766131	-347.803672	26.346
C         -0.13310        1.57250        0.01310
C          0.02800        0.04800       -0.01110
C          0.84820       -0.47860       -1.23430
C          2.16980       -0.91570       -0.61620
O          2.77750        0.26540        0.01660
C          2.28340       -0.18910        1.27800
C          1.83670       -1.52110        0.76810
C          0.80010       -0.50100        1.19540
H          0.84590        2.05780       -0.01660
H         -0.71600        1.92140       -0.84630
H         -0.65280        1.89910        0.92050
H         -0.96870       -0.40780       -0.01930
H          0.35450       -1.33390       -1.71060
H          1.00070        0.29150       -1.99640
H          2.88090       -1.42570       -1.26840
H          2.81220        0.11870        2.17250
H          1.96920       -2.53320        1.12310
H          0.28860       -0.64540        2.14170
