16
gdb 19132	3.31419	1.77776	1.3455	2.9201	69.39	-0.2686	0.0157	0.2842	928.3706	0.131422	-342.756659	-342.74915	-342.748206	-342.788616	28.011
N         -0.19320       -1.15890        0.72200
C         -0.14460       -0.04630        0.40840
C         -0.08680        1.34270       -4.80260
C          0.66830        2.26290        0.90970
N          1.24010        1.87160       -0.38050
C         -1.26470        1.80960       -0.81090
C         -1.13800        3.01320       -1.70700
C         -1.26130        1.63720       -2.30900
H          0.33880        3.29590        0.96700
H          1.09120        1.85240        1.82140
H          1.95360        1.15810       -0.25620
H         -2.21430        1.66820       -0.30400
H         -1.98630        3.68570       -1.76500
H         -0.16590        3.48810       -1.76460
H         -0.36880        1.21500       -2.75720
H         -2.18940        1.35440       -2.79190
