21
gdb 1337	4.70841	1.54995	1.41719	0.1119	75.32	-0.2555	0.0888	0.3443	989.7399	0.193333	-274.987297	-274.978488	-274.977544	-275.019934	32.759
C         -0.04750        1.54610       -0.27350
C         -0.01080        0.09440        0.22040
C         -1.37390       -0.56670        0.16610
C         -1.87700       -1.23610       -1.09610
C         -1.59960       -2.06520        0.13960
C         -0.42220       -3.02270        0.12660
C         -2.79690       -2.59250        0.91010
H          0.94330        2.00880       -0.22500
H         -0.39580        1.59850       -1.31030
H         -0.72860        2.15210        0.33420
H          0.70820       -0.47130       -0.38220
H          0.37010        0.07050        1.25040
H         -2.13120       -0.01480        0.72160
H         -2.90710       -1.08010       -1.40040
H         -1.18050       -1.32120       -1.92560
H          0.41260       -2.65210       -0.47300
H         -0.04890       -3.20630        1.14150
H         -0.72150       -3.99090       -0.29250
H         -3.15820       -3.53550        0.48180
H         -2.54050       -2.78390        1.95930
H         -3.62820       -1.88050        0.89530
