16
gdb 12499	3.36003	2.0551	1.51989	5.1456	60.55	-0.2703	0.0276	0.298	845.6226	0.132289	-420.915622	-420.90852	-420.907576	-420.947574	26.069
O          0.10480        0.36710       -0.79550
C         -0.05870        1.19610        0.04730
O         -1.27170        1.75620        0.25180
C         -1.47650        2.57990        1.41170
C         -0.94640        3.99920        1.19150
C          0.39780        3.98190        0.44880
C          1.37750        2.94360        0.98210
O          0.92110        1.57430        0.91310
H         -2.55660        2.57510        1.57220
H         -0.99590        2.10890        2.27320
H         -1.66770        4.58900        0.61740
H         -0.84280        4.48400        2.16940
H          0.22720        3.79820       -0.61780
H          0.88230        4.96190        0.51570
H          2.31840        2.99440        0.42280
H          1.60120        3.12080        2.03940
