13
gdb 18845	4.08611	2.56163	2.08019	3.8861	60.91	-0.2243	-0.0238	0.2005	661.0239	0.097044	-361.431674	-361.426221	-361.425277	-361.461015	22.082
O          0.04940        0.07010        0.21860
C         -0.04970        1.24680        0.07530
C         -1.13230        2.24900       -0.07930
C         -0.69860        3.58090        0.64910
C          0.36450        3.47290        1.70530
C          1.35480        2.73400        1.20440
N          1.02880        2.26550       -0.14080
C         -0.06030        3.18910       -0.62190
H         -2.16000        2.09310       -0.37680
H         -1.47140        4.34000        0.67900
H          0.30940        3.92770        2.68370
H          2.26220        2.37960        1.67130
H          0.00060        3.69230       -1.57780
