15
gdb 11429	4.03476	1.61917	1.28394	4.2172	57.9	-0.2626	0.0546	0.3171	938.0259	0.119702	-436.983306	-436.975696	-436.974752	-437.015739	26.809
C          0.12920        1.34350       -0.07800
O          0.13130       -0.07690       -0.02680
C          0.64900       -0.59700        1.14970
C          0.57780       -2.13460        1.07620
N          1.94350       -2.44350        0.72180
C          2.80020       -1.39960        0.95560
O          3.99650       -1.38410        0.89930
O          2.04050       -0.29970        1.29190
H          1.14760        1.74510       -0.05290
H         -0.35110        1.62260       -1.01720
H         -0.44330        1.76750        0.76010
H          0.14620       -0.16500        2.02480
H          0.27820       -2.56860        2.03860
H         -0.13820       -2.43240        0.30660
H          2.31410       -3.37590        0.66520
