9
gdb 3646	10.1078	2.04649	1.70191	1.0381	52.08	-0.2778	-0.0529	0.2249	651.7952	0.05546	-338.194242	-338.188862	-338.187918	-338.223412	19.13
C          0.04430       -1.17310       -0.00420
C          0.00730        0.02740        0.00260
C         -0.02600        1.44350        0.01060
N         -1.15610        2.11810        0.02960
O         -0.73540        3.44530        0.03110
C          0.59970        3.42020        0.01330
N          1.11210        2.23420        0.00000
H          0.07670       -2.23520       -0.01020
H          1.11100        4.37160        0.01180
