17
gdb 8324	5.85594	1.30087	1.29138	3.8865	69.24	-0.2466	0.0381	0.2847	988.4671	0.142932	-363.879177	-363.871924	-363.870979	-363.910848	27.91
O         -0.45850       -0.03240        0.00980
C         -0.26890        1.15340        0.01330
C         -1.14450        2.43070        0.03320
C          0.20170        3.21630        0.01770
C          0.44510        4.29660       -1.06550
C          0.21140        5.37400        0.02960
C          0.47720        4.28450        1.10520
N          0.87280        1.92000        0.00060
H         -1.77350        2.55500       -0.85040
H         -1.74710        2.54520        0.93630
H          1.48660        4.28690       -1.40260
H         -0.20610        4.29020       -1.94320
H          0.87010        6.24380        0.02470
H         -0.82500        5.72070        0.04680
H         -0.14780        4.26820        2.00160
H          1.52810        4.27120        1.41130
H          1.85000        1.66490       -0.01480
