18
gdb 16332	3.06972	1.85824	1.42796	1.732	67.38	-0.2553	0.0667	0.322	932.2652	0.152778	-384.902399	-384.894228	-384.893283	-384.935013	30.461
C         -0.24040        1.49210        0.00770
C         -0.00730       -0.00730       -0.10270
C          1.25420       -0.52830       -0.89200
C          1.72410       -1.20920        0.39850
O          1.86030       -0.18030        1.38890
C          0.54690       -0.73100        1.14420
C         -0.18140       -1.25090        2.34090
O         -0.65490       -0.19350        3.16400
H          0.65820        1.98710        0.38670
H         -0.48540        1.92740       -0.96690
H         -1.06470        1.70650        0.69510
H         -0.90820       -0.51670       -0.46090
H          0.99780       -1.22930       -1.68970
H          1.93560        0.23380       -1.27830
H          2.33170       -2.09830        0.52840
H         -1.06890       -1.81220        2.03010
H          0.47780       -1.93540        2.89580
H          0.11590        0.32590        3.41940
