17
gdb 21030	3.90305	1.71695	1.21358	3.0211	72.62	-0.2013	0.0439	0.2452	998.6029	0.142988	-360.071111	-360.062541	-360.061596	-360.10413	30.62
C         -0.08540        1.38310       -0.04340
N         -0.03360       -0.05700        0.02660
N         -0.00730       -0.80300       -1.11330
C          0.03380       -2.06490       -0.69740
C          0.05570       -3.18610       -1.68830
C          0.05750       -2.14410        0.71580
C          0.01900       -0.82940        1.14200
N         -0.05430       -0.25660        2.41800
H          0.91300        1.83620        0.01160
H         -0.53940        1.65700       -0.99600
H         -0.69570        1.76640        0.77880
H          0.95330       -3.80490       -1.57640
H         -0.80950       -3.84740       -1.56560
H          0.03990       -2.78330       -2.70330
H          0.10210       -3.02580        1.33550
H         -0.01970       -0.96450        3.13960
H          0.67480        0.42560        2.59470
