18
gdb 8918	3.62753	1.24789	0.99153	0.1327	70.26	-0.253	0.03	0.283	1188.5372	0.149976	-384.899141	-384.889211	-384.888267	-384.93371	35.555
C         -0.02760        1.57580        0.07710
C         -0.01230        0.04790       -0.00650
C          0.72560       -0.47300       -1.24200
O          2.08710       -0.07330       -1.26810
C          0.60800       -2.01700       -1.36370
O         -0.75480       -2.43670       -1.37520
C          1.33450       -2.52280       -2.52850
C          1.86680       -2.93690       -3.52350
H          0.98890        1.97770        0.04960
H         -0.57790        2.00970       -0.76510
H         -0.50810        1.91540        0.99940
H          0.47330       -0.37240        0.88800
H         -1.03020       -0.35290       -0.01710
H          0.28560       -0.03420       -2.14700
H          2.50160       -0.37860       -0.45280
H          1.03580       -2.45710       -0.45130
H         -1.07340       -2.35070       -2.28050
H          2.35710       -3.30390       -4.39130
