13
gdb 19028	4.87687	2.14705	1.80746	4.344	66.24	-0.2404	-0.0854	0.155	708.0049	0.096005	-361.344887	-361.339254	-361.33831	-361.374421	22.737
O         -0.03720        0.00590        0.20950
C         -0.04540        1.17910       -0.05800
C         -1.22990        2.11330       -0.18050
C         -0.68990        3.33700       -0.37320
N         -0.34740        4.13800        0.82090
C          1.06690        3.62520        0.46200
C          0.73160        3.30030       -0.93160
C          1.14540        2.12700       -0.06070
H         -2.08570        1.92860        0.45970
H         -0.27710        5.13160        0.57960
H          1.93540        4.09370        0.91580
H          1.13210        3.57340       -1.89850
H          2.15370        1.72270       -0.09410
