15
gdb 16652	3.42883	2.22483	1.50992	3.9633	61.67	-0.2426	0.0067	0.2493	823.6678	0.119788	-399.815773	-399.808742	-399.807798	-399.847062	25.729
C         -0.04640        1.40150       -0.12360
N         -0.01160       -0.03570        0.00380
C         -1.21960       -0.84520        0.03810
C         -0.69310       -2.27050        0.00620
O          0.06040       -2.55550       -1.16900
C          0.77180       -2.21200        0.03550
C          1.16210       -0.74710        0.06040
O          2.28200       -0.28540        0.12200
H          0.98510        1.75740       -0.11260
H         -0.52570        1.70730       -1.06220
H         -0.59360        1.86010        0.70930
H         -1.79980       -0.65940        0.95330
H         -1.86750       -0.63580       -0.82330
H         -1.27540       -3.08750        0.41960
H          1.43540       -2.96460        0.44550
