15
gdb 6678	7.39	0.76195	0.71987	4.7049	59.68	-0.2631	0.0081	0.2712	1469.6899	0.116784	-436.992034	-436.982784	-436.98184	-437.028458	30.164
N         -0.16890        1.26170        0.11720
C          0.03540       -0.08480        0.10350
O          1.13880       -0.58400        0.22170
C         -1.22800       -0.92720       -0.05980
C         -0.87590       -2.35650       -0.45580
O         -2.07700       -3.12950       -0.56750
C         -2.23540       -4.18110        0.25770
O         -3.20890       -4.87180        0.24500
H          0.62280        1.86420        0.27230
H         -1.08300        1.67110        0.03970
H         -1.77220       -0.93340        0.89310
H         -1.90100       -0.48340       -0.80110
H         -0.37880       -2.38050       -1.42880
H         -0.19330       -2.79590        0.27790
H         -1.37050       -4.32690        0.93480
