13
gdb 949	5.67429	2.62513	1.79479	1.255	62.42	-0.2191	0.001	0.2201	662.6765	0.104479	-307.387663	-307.382167	-307.381222	-307.416622	21.832
O          0.09720        1.36750        0.13110
C          0.06790        0.00680        0.04010
C          0.07610       -0.66460       -1.18340
C          0.04480       -2.05680       -1.20960
C          0.00520       -2.78540       -0.02440
C         -0.00280       -2.10590        1.19390
C          0.02820       -0.71730        1.23340
H          0.12260        1.74020       -0.75610
H          0.10700       -0.09880       -2.11130
H          0.05150       -2.57000       -2.16570
H         -0.01910       -3.86900       -0.04790
H         -0.03350       -2.66250        2.12500
H          0.02250       -0.17550        2.17230
