16
gdb 14549	4.9747	1.52481	1.4248	2.584	67.04	-0.2497	-0.0308	0.2189	901.1187	0.13013	-383.720313	-383.713095	-383.712151	-383.751608	27.604
O         -0.12190        1.36790        0.01220
C         -0.09120       -0.01710        0.01590
C          1.00940       -0.58210       -0.79010
O          1.79190        0.12730       -1.38460
C         -0.45460       -0.81780        1.25330
C         -1.51410       -0.04000        2.04540
C         -2.44540       -0.06400        0.79040
C         -1.36600       -0.84130        0.02510
H          0.62580        1.63110       -0.54820
H          1.07870       -1.68830       -0.82020
H          0.20260       -1.58440        1.64900
H         -1.92020       -0.62150        2.87510
H         -1.20210        0.94140        2.40780
H         -3.34650       -0.65830        0.95300
H         -2.71960        0.90220        0.36260
H         -1.54000       -1.62940       -0.69940
