17
gdb 15703	3.04222	1.78314	1.25357	3.6728	63.96	-0.2317	-0.0265	0.2052	964.4798	0.143562	-401.012578	-401.004875	-401.003931	-401.045107	28.509
O          0.00640        1.38580       -0.24630
C          0.03830       -0.01550       -0.12590
C         -1.36970       -0.55240        0.20520
N         -2.32720       -0.07000       -0.80490
C         -2.50520       -1.16680       -1.78660
C         -2.33710       -2.47970       -1.00450
C         -1.40870       -2.08710        0.14940
O         -0.79840       -2.83030        0.87280
H         -0.77940        1.56680       -0.78320
H          0.40920       -0.49270       -1.04950
H          0.72900       -0.27900        0.67960
H         -1.64320       -0.19410        1.20190
H         -3.21720        0.12950       -0.36310
H         -3.47280       -1.07000       -2.28260
H         -1.73370       -1.08250       -2.56040
H         -3.29040       -2.80610       -0.56900
H         -1.92960       -3.31920       -1.57190
