16
gdb 17801	4.51449	1.55403	1.36566	1.8464	65.	-0.2371	-0.0262	0.2109	925.9831	0.129059	-383.681615	-383.674196	-383.673252	-383.714021	27.254
C          0.42110        0.83530        1.30120
C          0.18330       -0.00380        0.05860
O          0.96780       -0.01800       -0.86490
C         -1.09960       -0.80860        0.05590
C         -1.53370       -1.69090       -1.14260
C         -0.41820       -2.71710       -0.83160
C         -1.13120       -2.32130        0.48010
O         -2.42740       -2.43540       -0.21410
H          1.41460        1.28310        1.26330
H         -0.33370        1.62800        1.36470
H          0.31530        0.22710        2.20670
H         -1.92830       -0.26040        0.51180
H         -1.94770       -1.37780       -2.10030
H         -0.63310       -3.73220       -1.16580
H          0.61430       -2.40970       -0.98870
H         -1.05470       -2.74400        1.48260
