20
gdb 7974	3.28742	1.61996	1.27349	1.653	77.45	-0.2343	0.0241	0.2584	1042.4093	0.176677	-349.02749	-349.018919	-349.017975	-349.060027	32.748
C         -0.12750        1.59670        0.08130
C          0.07150        0.08050        0.02360
C          0.89580       -0.43260       -1.13980
C          1.66660       -1.47230       -0.80470
C          2.56620       -2.26930       -1.69500
C          1.47560       -1.81250        0.66280
C          0.83210       -0.53030        1.23960
O          1.82090        0.34970        1.75820
H          0.82740        2.12470        0.14320
H         -0.65490        1.94970       -0.81110
H         -0.71840        1.88250        0.95710
H         -0.92480       -0.38890       -0.01730
H          0.82240       -0.01350       -2.13890
H          2.57510       -1.87880       -2.71640
H          3.59760       -2.27220       -1.31980
H          2.25150       -3.32030       -1.73640
H          0.81150       -2.68230        0.77310
H          2.40540       -2.05450        1.19040
H          0.16610       -0.73070        2.08300
H          2.44850        0.52200        1.04640
