18
gdb 8526	4.47184	1.89717	1.61903	1.3619	71.83	-0.2519	0.0764	0.3284	845.4109	0.153422	-347.729652	-347.722608	-347.721664	-347.760226	28.621
C         -0.15340        1.58010       -0.04400
C         -0.03440        0.06380       -0.02000
O         -1.28790       -0.54900       -0.27380
C          1.19510       -0.60460       -0.68500
C          2.11360       -0.29080        0.54820
C          2.58000       -1.75480        0.66330
C          1.09650       -1.85440        0.26040
C          0.70000       -0.61940        1.14540
H          0.79530        2.06900        0.19320
H         -0.46330        1.92880       -1.03780
H         -0.90680        1.91340        0.67670
H         -1.65120       -0.16530       -1.07880
H          1.50350       -0.60960       -1.73300
H          2.68530        0.62340        0.71150
H          3.31680       -2.09600       -0.07150
H          2.84500       -2.11020        1.66460
H          0.48270       -2.73650        0.08910
H          0.43180       -0.64090        2.20330
