17
gdb 13691	5.2998	0.94248	0.87585	5.0915	66.79	-0.2449	0.037	0.2819	1295.7	0.141661	-401.001307	-400.992637	-400.991693	-401.036131	30.59
O          0.04970        1.42090        0.41490
C         -0.07470        0.10050       -0.02860
C         -0.57050       -0.95880        0.92460
C         -1.46810       -0.43140       -0.18540
C         -2.66290        0.43410        0.15170
N         -3.80570       -0.35850        0.58620
C         -4.99760       -0.37630       -0.06620
O         -5.27510        0.27930       -1.04860
H          0.82200        1.47110        0.98760
H          0.65680       -0.19740       -0.77940
H         -0.17240       -1.96510        0.85380
H         -0.78960       -0.62410        1.93440
H         -1.62820       -1.09860       -1.02750
H         -2.38830        1.16180        0.92140
H         -3.00010        0.99170       -0.72500
H         -3.68530       -0.98090        1.36980
H         -5.71360       -1.07340        0.41460
