17
gdb 16278	3.16263	1.79246	1.43442	4.3167	73.6	-0.2681	0.0194	0.2875	926.2679	0.142985	-326.722509	-326.715004	-326.71406	-326.754085	28.578
C         -0.11010        1.57060        0.05010
C          0.06610        0.05970        0.00780
C          1.16400       -0.57120       -0.91820
C          1.77240       -1.29090        0.28950
C          2.19510       -0.30440        1.32780
C          0.72220       -0.64210        1.22140
C          0.00150       -1.22110        2.30620
N         -0.60560       -1.68630        3.17610
H          0.83230        2.08730        0.25800
H         -0.48510        1.94030       -0.91020
H         -0.82910        1.85860        0.82400
H         -0.89560       -0.41770       -0.19690
H          0.74330       -1.24500       -1.66620
H          1.83460        0.13440       -1.41910
H          2.10770       -2.31990        0.31120
H          2.68980       -0.71660        2.20020
H          2.53670        0.68690        1.04270
