13
gdb 11195	6.51651	1.31551	1.10198	3.7117	63.38	-0.2462	-0.0877	0.1586	990.6901	0.095612	-394.802386	-394.795153	-394.794209	-394.83432	25.562
N         -0.04520        1.29550        0.00600
C          0.00650        0.02880        0.00060
C         -1.18250       -0.93130        0.00280
N         -0.63350       -2.29130       -0.00660
C          0.63870       -2.15440       -0.01260
N          1.10290       -0.84030       -0.00850
C          1.62640       -3.27940       -0.02300
O          1.32580       -4.44080       -0.02790
H          0.88260        1.72180        0.00300
H         -1.81360       -0.78250        0.88590
H         -1.82350       -0.77430       -0.87170
H          2.06760       -0.55340       -0.01420
H          2.69030       -2.94820       -0.02600
