17
gdb 2533	3.25634	2.09504	1.3522	0.8236	66.75	-0.2624	0.039	0.3014	916.5282	0.145426	-309.676929	-309.668207	-309.667263	-309.709861	30.661
C         -0.81240        0.99130       -0.52160
C         -0.22540       -0.37020       -0.14510
C          0.72280       -0.29250        1.06080
O         -0.03510        0.17160        2.16710
C          0.74030        0.50690        3.29850
C          1.35570       -1.59130        1.33340
C          1.86430       -2.65820        1.55390
H         -0.02460        1.69650       -0.81040
H         -1.50010        0.89630       -1.36700
H         -1.35820        1.42220        0.32070
H         -1.02360       -1.07790        0.10300
H          0.33150       -0.79810       -0.98530
H          1.52120        0.43820        0.83730
H          1.28310       -0.36230        3.69380
H          1.46980        1.29890        3.06750
H          0.04860        0.87380        4.06020
H          2.31660       -3.59940        1.74780
