9
gdb 14	35.09545	9.3686	8.1497	1.4131	27.87	-0.2619	0.0798	0.3417	193.1659	0.079754	-154.972731	-154.968412	-154.967467	-154.998148	13.546
C         -0.00860        1.50200       -0.00680
C          0.01100       -0.01760       -0.01380
O          0.68090       -0.44040       -1.19310
H          1.01150        1.89660       -0.01920
H         -0.53160        1.88080       -0.88970
H         -0.51670        1.87610        0.88710
H          0.52380       -0.38910        0.88820
H         -1.02030       -0.40510        0.01690
H          0.69530       -1.40180       -1.20150
