18
gdb 9508	2.98028	1.68275	1.47834	3.0906	68.24	-0.2521	-0.0287	0.2234	949.6621	0.151201	-384.935361	-384.926526	-384.925582	-384.969401	31.291
C         -0.34650        1.44340       -0.02850
C          0.14710        0.01010       -0.05500
O          1.35750       -0.14640       -0.82080
C          2.06010       -0.75610        0.28290
C          0.84290       -0.61320        1.21540
C          1.00430        0.27100        2.45010
C          0.18270       -1.91750        1.60330
O          0.59300       -3.01800        1.33870
H          0.41460        2.12750        0.35480
H         -0.59580        1.75440       -1.04790
H         -1.24930        1.53590        0.58460
H         -0.64600       -0.63990       -0.45450
H          2.34690       -1.79160        0.07440
H          2.94410       -0.17640        0.57410
H          1.41570        1.24880        2.18930
H          0.04670        0.43140        2.95790
H          1.68760       -0.19620        3.16760
H         -0.77090       -1.78430        2.16810
