15
gdb 2248	3.68098	3.10978	2.01821	3.1281	61.82	-0.237	-0.0047	0.2322	673.7932	0.124635	-308.51707	-308.510408	-308.509464	-308.547438	24.921
C         -0.05210        1.56760        0.01980
C          0.05770        0.07020        0.00350
C         -0.83150       -0.84170        0.84490
C          0.64050       -0.96280        1.01720
C          1.20520       -1.83120       -0.11620
C          0.67400       -0.74710       -1.09430
O          0.88280       -0.52380       -2.25430
H          0.88000        2.03540       -0.31260
H         -0.84950        1.90710       -0.64980
H         -0.28170        1.93600        1.02460
H         -1.37210       -0.31040        1.62240
H         -1.39770       -1.64790        0.38500
H          1.15070       -0.73200        1.94300
H          2.29720       -1.86990       -0.16360
H          0.80560       -2.84590       -0.20530
