20
gdb 9764	3.1764	1.62374	1.43725	1.7827	70.17	-0.2463	0.071	0.3173	976.2071	0.177325	-386.143089	-386.134491	-386.133547	-386.176116	32.03
C         -0.23500        1.65140        0.03880
C          0.02910        0.14310        0.00740
C         -1.29120       -0.63910       -0.01300
O         -2.05280       -0.28230        1.13230
C          0.90090       -0.30930       -1.20200
C          2.00320       -1.19040       -0.56770
O          1.55300       -1.50300        0.74250
C          0.88230       -0.34130        1.20280
H          0.70540        2.21190        0.06200
H         -0.79300        1.96990       -0.84870
H         -0.82450        1.92590        0.91730
H         -1.83920       -0.40380       -0.94010
H         -1.06330       -1.71560       -0.01810
H         -2.83120       -0.84500        1.16600
H          0.30480       -0.87230       -1.92740
H          1.32700        0.54740       -1.73040
H          2.17990       -2.13040       -1.09690
H          2.95670       -0.63970       -0.52140
H          1.60710        0.43660        1.49750
H          0.28000       -0.61020        2.07260
