20
gdb 8922	3.44854	1.31506	1.02148	1.0641	77.61	-0.251	0.056	0.307	1191.1236	0.173348	-348.968593	-348.958457	-348.957513	-349.003509	36.273
C          0.03920        1.37800        0.12020
O         -0.06840       -0.01370       -0.06650
C          0.65640       -0.52770       -1.17620
C          2.14910       -0.64400       -0.86520
C          0.00410       -1.89430       -1.50480
C         -1.50310       -1.75180       -1.79630
C          0.68370       -2.55270       -2.61850
C          1.21430       -3.08650       -3.55650
H          1.05710        1.69250        0.39210
H         -0.26330        1.93330       -0.78140
H         -0.63380        1.64450        0.93920
H          0.51180        0.13680       -2.04490
H          2.30310       -1.29290        0.00310
H          2.68690       -1.06590       -1.71710
H          2.58330        0.33450       -0.64160
H          0.12370       -2.51660       -0.60670
H         -1.95290       -2.73200       -1.97300
H         -1.99940       -1.27520       -0.95000
H         -1.66460       -1.14080       -2.69000
H          1.68900       -3.56660       -4.37600
