16
gdb 795	6.38612	1.21078	1.09517	0.8991	60.51	-0.2419	0.0103	0.2523	1051.1719	0.134383	-362.871515	-362.862829	-362.861885	-362.905081	29.947
C         -0.13890        1.51960       -0.02570
C         -0.01080        0.01920       -0.00150
C          0.07820       -0.70810        1.31350
C          1.40660       -0.45360        2.04750
O          1.43380       -1.04680        3.33350
N          0.04180       -0.70710       -1.05330
O         -0.02260        0.07050       -2.22240
H          0.76690        1.97970       -0.43590
H         -0.96090        1.81690       -0.68340
H         -0.31320        1.92190        0.97420
H         -0.73940       -0.39100        1.97290
H         -0.03400       -1.78140        1.12720
H          2.24230       -0.80030        1.42050
H          1.55010        0.61900        2.21510
H          1.38400       -2.00130        3.21840
H         -0.00460       -0.60130       -2.91180
