19
gdb 12011	3.16176	2.00783	1.73936	0.2408	70.25	-0.2345	0.0772	0.3117	857.6669	0.166418	-365.055121	-365.047452	-365.046508	-365.086387	30.63
C         -0.02240        1.52460        0.00950
C          0.03520       -0.00070       -0.00870
O         -1.28200       -0.56390        0.05220
C          0.82650       -0.57720       -1.21460
C          1.35630       -1.95300       -0.74880
C          1.53700       -1.77690        0.74770
N          2.21800       -0.50690        1.10000
C          0.74690       -0.60760        1.19240
H          0.98400        1.94240        0.10090
H         -0.46850        1.91340       -0.91430
H         -0.62820        1.87270        0.85180
H         -1.79020       -0.19350       -0.67700
H          0.18780       -0.64590       -2.10050
H          1.66170        0.08450       -1.45430
H          0.61270       -2.73760       -0.92490
H          2.27920       -2.24030       -1.26210
H          1.68440       -2.64080        1.38780
H          2.61070       -0.58930        2.03420
H          0.25700       -0.56020        2.15930
