15
gdb 13739	3.34773	1.68522	1.31356	3.2656	68.77	-0.2481	0.0051	0.2532	949.3908	0.116026	-362.626015	-362.617512	-362.616568	-362.65952	29.915
C         -0.08710        1.31130       -0.14480
C         -0.06580       -0.20100       -0.02390
O          0.87830       -0.89000       -0.32560
N         -1.22070       -0.73790        0.55750
C         -2.58720       -0.54950        0.14190
C         -1.93650       -1.91900        0.11010
C         -1.64330       -2.53300       -1.15660
C         -1.42610       -3.07010       -2.20910
H          0.93070        1.66930       -0.29820
H         -0.69690        1.60810       -1.00580
H         -0.52290        1.77460        0.74430
H         -3.30580       -0.31710        0.92410
H         -2.77710       -0.08350       -0.82200
H         -2.18780       -2.61280        0.90950
H         -1.21210       -3.54140       -3.13650
