11
gdb 21417	3.92711	2.13252	1.38204	1.9907	57.67	-0.2599	-0.0833	0.1766	793.8213	0.073666	-430.743841	-430.737576	-430.736632	-430.774644	22.86
N         -0.12730        1.26460       -0.40480
C         -0.02220        0.09830        0.06120
N         -1.13560       -0.72490        0.16220
N         -1.15970       -1.97070        0.63330
C         -0.04690       -2.47880        1.04090
C          1.22790       -1.76040        1.01120
O          2.28950       -2.17170        1.37220
O          1.14720       -0.46360        0.50050
H          0.77210        1.73930       -0.41360
H         -2.01500       -0.34500       -0.15190
H         -0.05460       -3.48990        1.42550
