17
gdb 20073	4.45108	1.58274	1.45337	2.5848	63.42	-0.2458	0.0709	0.3167	903.9672	0.144277	-400.961812	-400.954616	-400.953672	-400.993965	26.289
C          0.29030        1.47080        0.25240
N          1.30150        0.41150        0.06760
C         -0.12530        0.05930        0.07900
C         -0.58960       -0.79140        1.24510
C         -0.01120       -2.23330        1.21710
O          0.43380       -2.45550        2.54650
C          0.81000       -1.18370        3.00930
O         -0.14530       -0.27390        2.49740
H          0.27390        1.90050        1.24780
H          0.10660        2.16570       -0.56260
H          1.65430        0.42660       -0.88520
H         -0.59250       -0.20760       -0.86900
H         -1.68690       -0.80170        1.26270
H         -0.75390       -2.99520        0.97070
H          0.82620       -2.29470        0.50790
H          0.76540       -1.17420        4.10210
H          1.81680       -0.91400        2.65250
