20
gdb 15012	4.16469	1.31451	1.06974	2.0483	71.15	-0.2434	0.0757	0.319	1118.1573	0.178759	-386.146222	-386.13818	-386.137236	-386.178543	30.594
O         -0.03380        1.44210       -0.02680
C          0.03300        0.02320        0.00810
C         -1.38970       -0.52400       -0.01360
C         -2.14890       -0.12380       -1.28870
C         -3.53720       -0.76490       -1.30740
O         -3.47040       -2.17700       -1.18360
C         -2.85070       -2.57550        0.02560
C         -1.41530       -2.05310        0.13500
H          0.86270        1.78600       -0.07320
H          0.59110       -0.37020       -0.85810
H          0.54940       -0.32700        0.91710
H         -1.91560       -0.08520        0.84750
H         -2.23040        0.96490       -1.35640
H         -1.58860       -0.46710       -2.16880
H         -4.15380       -0.34570       -0.49230
H         -4.05370       -0.56720       -2.25140
H         -3.44070       -2.21780        0.88840
H         -2.87430       -3.66940        0.03560
H         -0.81080       -2.51310       -0.65780
H         -0.98400       -2.36210        1.09520
