13
gdb 23658	3.70661	1.94967	1.27869	3.1363	64.25	-0.2158	-0.0129	0.203	864.2994	0.097508	-402.821967	-402.815645	-402.814701	-402.852242	24.851
N          0.01610        1.36580        0.16380
C         -0.01550       -0.00740        0.06300
C         -1.22630       -0.72030        0.04120
C         -1.16870       -2.10420       -0.00820
C          0.06330       -2.75460       -0.03240
C          1.18230       -1.93360       -0.00850
F          2.38760       -2.50040       -0.03580
N          1.17730       -0.62070        0.03300
H          0.90400        1.78170       -0.07210
H         -0.79120        1.87300       -0.16020
H         -2.17390       -0.19510        0.06870
H         -2.08630       -2.68300       -0.02720
H          0.16400       -3.83040       -0.07110
