13
gdb 7028	4.06699	1.40821	1.04602	5.3668	60.21	-0.2509	-0.0403	0.2105	1026.0102	0.095849	-431.970363	-431.962619	-431.961675	-432.003238	26.71
N         -0.01920        1.32340        0.04930
C          0.06290        0.06110       -0.02980
N         -1.01870       -0.79850        0.08470
C         -2.34890       -0.46390        0.29680
O         -2.81610        0.63430        0.42280
N          1.29070       -0.63620       -0.24730
C          1.53630       -1.97910       -0.35620
O          0.71400       -2.87030       -0.28230
H          0.88840        1.77200       -0.06090
H         -0.79150       -1.78650       -0.00190
H         -2.95380       -1.39200        0.33640
H          2.09380       -0.03120       -0.33460
H          2.60880       -2.17860       -0.52640
