17
gdb 11557	4.6058	1.19578	1.04439	1.6912	65.15	-0.2136	-0.0229	0.1908	1132.639	0.140152	-400.963655	-400.954932	-400.953988	-400.9979	30.739
O          0.06460        0.58720        0.98950
C         -0.06190        0.08040       -0.32440
C         -1.24810       -0.86830       -0.56350
O         -1.54070       -1.16890       -1.69920
C         -1.95300       -1.39420        0.68420
N         -3.00270       -2.38690        0.59160
C         -3.99600       -2.38060       -0.47620
C         -2.97200       -3.46420       -0.39010
H         -0.55910        1.31110        1.09940
H         -0.10300        0.86690       -1.08980
H          0.84600       -0.50320       -0.52310
H         -1.16930       -1.77290        1.35500
H         -2.35460       -0.51910        1.21520
H         -5.01680       -2.56280       -0.14820
H         -3.88510       -1.67870       -1.29560
H         -2.20190       -3.45890       -1.15420
H         -3.23890       -4.44360       -0.00040
