15
gdb 20993	3.52507	2.11735	1.34412	5.1772	63.55	-0.2019	0.046	0.2479	874.8586	0.121142	-392.178125	-392.170211	-392.169267	-392.210016	28.777
C         -0.09560        1.49210        0.01060
N          0.00980        0.04890        0.00220
C         -0.02320       -0.79750       -1.08210
N         -0.09670       -0.31180       -2.38760
N         -0.07010       -2.04510       -0.70640
N         -0.06190       -2.05260        0.68920
C         -0.01030       -0.80910        1.07770
N         -0.06830       -0.33740        2.38910
H          0.88720        1.97860        0.00720
H         -0.64830        1.81060       -0.87640
H         -0.63750        1.80110        0.90750
H          0.72550        0.21520       -2.66480
H         -0.21380       -1.09520       -3.02050
H         -0.17790       -1.12750        3.01500
H          0.75730        0.18650        2.66210
