18
gdb 14240	3.28068	1.84933	1.76677	2.5764	66.77	-0.244	0.0651	0.3092	856.1921	0.154257	-384.908738	-384.901385	-384.900441	-384.940544	28.63
C          0.45030        1.48460       -0.21630
C          0.19380        0.01470        0.03300
O          1.03880       -0.86240       -0.77890
C          1.33910       -1.69680        0.36460
C          2.73330       -1.32020        0.93620
O          3.64670       -0.84990       -0.01210
C          2.03430       -0.28250        1.88600
C          0.64500       -0.69550        1.32940
H          1.49380        1.75310       -0.03310
H          0.21340        1.73320       -1.25570
H         -0.18690        2.09610        0.43170
H         -0.85870       -0.21610       -0.18480
H          1.07020       -2.74330        0.20090
H          3.21080       -2.13470        1.48940
H          3.10230       -0.48050       -0.72380
H          2.15870       -0.51770        2.94590
H          2.33490        0.75550        1.72890
H         -0.13200       -0.96520        2.04280
