11
gdb 5649	5.60819	2.2453	1.60337	1.026	57.28	-0.2225	-0.0272	0.1954	701.1534	0.075427	-397.415251	-397.41023	-397.409286	-397.444275	19.772
O         -0.01560        1.34430        0.00940
C          1.26360        1.84350       -0.00010
C          2.09470        0.77450       -0.01360
O          3.41450        0.42070       -0.02800
C          3.35030       -0.96180       -0.03470
N          2.18740       -1.51100       -0.02650
C          1.31920       -0.41370       -0.01250
C          0.01470       -0.02040        0.00190
H          1.36070        2.91340        0.00460
H          4.30950       -1.45830       -0.04640
H         -0.94040       -0.51480        0.00830
