16
gdb 20921	3.23737	1.97586	1.3471	5.3217	66.91	-0.2204	0.0148	0.2352	917.5841	0.132035	-376.102223	-376.094304	-376.09336	-376.134957	28.42
C         -0.03350        1.52940        0.05230
C          0.00160        0.00320       -0.05570
N          0.74230       -0.46630       -1.21280
N          0.11290       -0.67020       -2.40280
N          1.00550       -1.09190       -3.24630
C          2.21870       -1.14610       -2.63270
C          2.06620       -0.74200       -1.32230
N          2.93070       -0.68240       -0.22780
H          0.97150        1.94960        0.16390
H         -0.48560        1.96240       -0.84350
H         -0.62380        1.83110        0.92270
H          0.45860       -0.44670        0.83130
H         -1.01000       -0.39570       -0.15680
H          3.10930       -1.46830       -3.14800
H          3.86860       -0.96530       -0.47940
H          2.96830        0.22980        0.21260
