19
gdb 7354	4.13194	1.20927	0.95792	2.3149	70.64	-0.2343	0.0652	0.2995	1251.8269	0.163416	-402.245041	-402.2349	-402.233956	-402.281248	33.718
C          0.04790        1.50630       -0.07520
C          0.03880       -0.00880       -0.00030
O          0.66260       -0.50350       -1.19660
C          0.73320       -1.85680       -1.28620
O          0.30590       -2.60360       -0.42900
N          1.33630       -2.25860       -2.44470
C          1.49000       -3.67840       -2.69540
C          1.84290       -1.35890       -3.46290
H          1.07060        1.88930       -0.13980
H         -0.50700        1.85870       -0.94950
H         -0.42010        1.92470        0.82080
H          0.58970       -0.37740        0.87060
H         -0.97820       -0.40780        0.06560
H          0.96940       -3.96870       -3.61750
H          2.55030       -3.94030       -2.80770
H          1.06940       -4.22760       -1.85510
H          1.67370       -0.32700       -3.16810
H          2.91970       -1.51440       -3.61330
H          1.34150       -1.54180       -4.42290
