17
gdb 11267	4.40591	1.36103	1.15356	5.4216	75.91	-0.2063	-0.0267	0.1796	1047.2963	0.143023	-363.896283	-363.888513	-363.887569	-363.928521	28.791
C          0.11820        1.52090        0.04650
C         -0.06030        0.00280       -0.02520
C          0.68080       -0.64320       -1.23450
C          1.90940       -1.26340       -0.59780
C          3.02540       -1.83150       -1.30340
O          3.14380       -1.86000       -2.51640
C          1.75790       -1.22430        0.74870
N          0.57030       -0.67090        1.13620
H          1.18070        1.78530        0.03550
H         -0.36240        1.99980       -0.81240
H         -0.33250        1.93500        0.95550
H         -1.12800       -0.23670       -0.03890
H          0.06320       -1.40740       -1.71990
H          0.93080        0.09470       -2.00250
H          3.81690       -2.25800       -0.64270
H          2.44430       -1.60310        1.49720
H          0.48110       -0.25480        2.05110
