11
gdb 493	9.41986	2.01611	1.74724	3.3466	50.16	-0.2698	0.0135	0.2834	665.5192	0.083043	-285.242094	-285.235491	-285.234547	-285.272892	21.973
N         -0.02920        1.11610       -0.18180
C         -0.27720       -0.09260        0.07400
O         -0.45610       -0.96730       -0.94210
C         -0.75120       -2.31340       -0.56260
C         -2.09630       -2.48020       -0.01980
C         -3.20080       -2.60960        0.43420
H          0.09040        1.63780        0.68400
H         -0.36710       -0.54900        1.06870
H         -0.63450       -2.89730       -1.47950
H         -0.00500       -2.67850        0.15660
H         -4.18010       -2.72630        0.82900
