15
gdb 20974	4.77636	1.69096	1.27005	3.4634	64.74	-0.2242	0.0095	0.2337	925.4039	0.11949	-395.981323	-395.97345	-395.972505	-396.014182	26.823
C         -0.09960        1.43000        0.02530
N          0.09420       -0.00950       -0.03000
C          0.03070       -0.75040        1.21780
C          0.02310       -0.63750       -1.21990
N         -0.05700       -0.08900       -2.41330
C         -0.05330       -1.19540       -3.21320
N          0.01300       -2.35290       -2.61740
O          0.06070       -1.97830       -1.24180
H          0.61860        1.86910        0.72560
H          0.05820        1.84860       -0.96740
H         -1.11370        1.68510        0.36250
H         -0.99010       -0.77640        1.62430
H          0.37130       -1.77320        1.06270
H          0.68140       -0.26910        1.95470
H         -0.10420       -1.13950       -4.29200
