20
gdb 10983	2.62497	2.27184	1.86446	1.4695	73.73	-0.2475	0.0671	0.3146	854.9154	0.178514	-349.004578	-348.996991	-348.996047	-349.035709	30.559
C         -0.02770        1.51330        0.05490
C         -0.02920        0.00370        0.00030
C          0.35240       -0.80690       -1.27720
C         -0.41990       -1.95690       -0.57190
C          0.47550       -2.23320        0.65120
C          0.76800       -0.75800        1.08440
C         -1.35470       -0.82790       -0.04720
O         -2.16150       -0.99260        1.08810
H          0.99080        1.91650        0.01100
H         -0.59350        1.94350       -0.77840
H         -0.48490        1.86890        0.98560
H         -0.14970       -0.43990       -2.17580
H          1.41600       -0.96290       -1.47750
H         -0.80660       -2.81680       -1.11890
H         -0.03600       -2.81670        1.42480
H          1.38240       -2.78190        0.38380
H          1.83330       -0.51100        1.05440
H          0.41380       -0.52630        2.09570
H         -2.02000       -0.46070       -0.83310
H         -1.62420       -1.34250        1.80560
