20
gdb 8033	3.39674	1.87434	1.49379	1.7694	74.56	-0.2386	0.0723	0.3109	939.1463	0.176844	-348.9808	-348.972759	-348.971815	-349.012874	30.858
C         -0.72100        1.28350        0.00160
C          0.05380       -0.02440        0.03110
C          1.25210       -0.21660       -0.95600
C          2.17820       -0.63400        0.23010
C          2.89430       -1.96200        0.15600
C          2.89130        0.57340        0.86500
O          1.72030        0.92280        1.63850
C          1.02160       -0.26820        1.21380
H         -0.05000        2.12680        0.18650
H         -1.20620        1.43100       -0.96920
H         -1.50000        1.30190        0.77180
H         -0.63320       -0.87530       -0.04830
H          1.10050       -0.99760       -1.70560
H          1.57070        0.69510       -1.47100
H          3.68590       -1.93840       -0.60320
H          3.35870       -2.22110        1.11370
H          2.20730       -2.77130       -0.11450
H          3.73320        0.30800        1.52030
H          3.20410        1.38040        0.19000
H          0.68660       -0.87170        2.06390
