20
gdb 8715	2.42123	1.65271	1.26431	1.4023	66.55	-0.2601	0.0469	0.3071	1054.1941	0.175141	-423.269521	-423.259787	-423.258843	-423.304729	35.862
C         -1.48410        0.11220        0.13600
C          0.04020        0.13560       -0.00440
C          0.60510       -0.62480       -1.21440
O          2.04180       -0.44360       -1.10880
C          0.32680       -2.13400       -1.15490
O          0.85310       -2.71840        0.01800
C          0.16370       -0.02420       -2.55710
O          0.53970        1.33200       -2.67380
H         -1.98270        0.57020       -0.72370
H         -1.87000       -0.90490        0.25520
H         -1.78390        0.67790        1.02300
H          0.38500        1.17060       -0.08040
H          0.49710       -0.29310        0.89190
H          2.44960       -0.90620       -1.85240
H         -0.74890       -2.33500       -1.16340
H          0.75060       -2.60680       -2.06000
H          1.72900       -2.32840        0.13440
H          0.59800       -0.62950       -3.37400
H         -0.92400       -0.07050       -2.66870
H          1.44170        1.38390       -2.33210
