20
gdb 11667	3.27664	1.65863	1.37783	1.4543	75.76	-0.263	0.0752	0.3381	991.1457	0.177235	-348.951087	-348.942922	-348.941978	-348.983508	31.27
C         -0.15160        1.57970       -0.01240
C          0.02610        0.06850        0.02880
C          1.19930       -0.64980       -0.71600
C          2.16260       -0.15770        0.40240
C          0.87530       -0.64540        1.13750
C          0.61810       -0.64650        2.61730
O          1.62950       -1.42650        3.24130
C          0.91150       -1.88130        0.18850
H          0.77700        2.13290        0.14820
H         -0.55370        1.88700       -0.98440
H         -0.86730        1.90660        0.75050
H         -0.94400       -0.41690       -0.13800
H          1.38710       -0.65520       -1.79090
H          3.05930       -0.75870        0.56880
H          2.39750        0.90710        0.44330
H          0.62420        0.39030        2.99340
H         -0.38560       -1.05950        2.81420
H          1.47200       -1.41770        4.18990
H         -0.03790       -2.40110        0.02630
H          1.73530       -2.58160        0.34160
