20
gdb 14526	3.74719	1.57704	1.31346	1.7009	74.44	-0.2597	0.0876	0.3473	1012.2182	0.176785	-348.980283	-348.972132	-348.971188	-349.012777	31.019
C          0.02490        1.55860       -0.49420
C         -0.01920        0.10340       -0.07950
C          1.15700       -0.75050       -0.30250
O          0.86660       -0.23660        1.00180
C         -1.39930       -0.50730        0.00970
C         -1.57110       -1.94450        0.57360
C         -2.84010       -1.45970        1.32420
C         -2.34840        0.00020        1.13890
H          1.05090        1.93420       -0.48020
H         -0.38200        1.68710       -1.50310
H         -0.57260        2.17230        0.18830
H          1.03500       -1.82690       -0.41490
H          2.04360       -0.33470       -0.78030
H         -1.88990       -0.41310       -0.96630
H         -1.68030       -2.76310       -0.14190
H         -0.76120       -2.17790        1.26990
H         -3.75120       -1.65580        0.75140
H         -2.98930       -1.81670        2.34560
H         -1.77080        0.34190        2.00280
H         -3.08850        0.76220        0.88300
