17
gdb 13708	5.97439	0.89537	0.8264	4.5117	72.38	-0.2278	0.0078	0.2356	1389.1868	0.140055	-400.968211	-400.959329	-400.958384	-401.002779	31.024
C          0.08850        1.30360        0.13110
O         -0.24320       -0.05030       -0.15650
C          0.55060       -0.66670       -1.05060
N          0.32690       -1.86020       -1.38740
C          1.16590       -2.48050       -2.35090
C          1.54460       -3.93640       -2.09150
C          0.49170       -3.60310       -3.11340
O         -0.84940       -3.86390       -2.85890
H          1.10490        1.39070        0.53340
H         -0.00500        1.93670       -0.75950
H         -0.62400        1.63990        0.88480
H          1.37780       -0.05370       -1.43690
H          1.89160       -1.85180       -2.86920
H          2.52190       -4.26920       -2.42480
H          1.20150       -4.36100       -1.15500
H          0.73750       -3.72470       -4.16420
H         -1.09870       -3.27600       -2.13030
