17
gdb 12942	2.60982	2.18753	1.67808	2.5951	69.91	-0.2554	0.0222	0.2776	872.4609	0.141272	-363.843446	-363.835494	-363.83455	-363.875428	29.648
C          0.02080        1.55730        0.01820
C          0.10080        0.04840        0.06620
C          1.35020       -0.73710       -0.14200
O          2.49060       -0.00790        0.38880
C          1.95020       -0.10790        1.67180
N          2.43810        0.20560        2.78280
C          0.68980       -0.78140        1.22500
C         -0.05550       -1.83460        1.98980
H          0.95500        2.01480        0.35020
H         -0.17510        1.89710       -1.00430
H         -0.78810        1.92550        0.65670
H         -0.77190       -0.46310       -0.33960
H          1.55920       -1.50260       -0.87770
H          3.36950        0.61160        2.67760
H         -0.60780       -1.39000        2.82420
H         -0.77650       -2.34940        1.34760
H          0.62930       -2.58040        2.40490
