15
gdb 1153	3.30736	2.21172	1.85995	0.6206	68.3	-0.2614	0.033	0.2944	776.0986	0.121207	-271.316064	-271.307761	-271.306817	-271.347683	30.83
C         -0.02550        1.54210       -0.00050
C         -0.00220       -0.01020       -0.00550
C          0.74810       -0.52840        1.25100
C         -1.38270       -0.51880        0.00650
C         -2.51550       -0.91650        0.04860
C          0.68780       -0.48370       -1.21550
C          1.28180       -0.85240       -2.19240
H          0.99760        1.92760       -0.00840
H         -0.55050        1.92180       -0.87920
H         -0.53630        1.90170        0.89680
H          0.24120       -0.17960        2.15480
H          0.77270       -1.61980        1.26150
H          1.77520       -0.15370        1.24950
H         -3.51460       -1.27560        0.07100
H          1.79320       -1.18690       -3.06090
