20
gdb 7819	3.19758	1.72049	1.20957	1.2551	78.5	-0.2334	0.0266	0.26	1056.4333	0.177232	-349.026068	-349.017814	-349.01687	-349.058388	31.488
C         -0.01640        1.52990       -0.05230
C         -0.00600        0.00320       -0.00580
O          0.63440       -0.43890       -1.19480
C          0.96370       -1.81440       -1.16450
C          2.01170       -2.10410       -0.08920
C          1.61130       -1.46710        1.22190
C          2.31420       -1.94630        2.46070
C          0.66760       -0.52450        1.23720
H          1.00640        1.91630       -0.02400
H         -0.49410        1.87290       -0.97400
H         -0.56890        1.93650        0.80020
H         -1.05620       -0.34980       -0.01440
H          0.06160       -2.42060       -0.97600
H          1.33350       -2.06490       -2.16320
H          2.12490       -3.18960        0.03620
H          2.99450       -1.72830       -0.40620
H          3.39970       -1.80230        2.37820
H          1.96960       -1.41680        3.35330
H          2.15610       -3.02150        2.61620
H          0.34610       -0.08130        2.17760
