15
gdb 19258	2.97647	2.31379	1.77321	1.4288	60.67	-0.2556	-0.0571	0.1985	774.1138	0.118902	-399.7481	-399.741082	-399.740138	-399.779304	26.395
O          0.47470        1.25020        0.08480
C          0.11120       -0.08930       -0.05560
C         -1.36250       -0.50420       -0.04020
C         -2.07850       -0.08220       -1.25390
N         -1.22950       -1.29150       -1.34860
C          0.21770       -0.80470       -1.44270
C          0.48760        0.01810       -2.67190
O          0.33730        1.22100       -2.72480
H          0.28090        1.69400       -0.75290
H          0.67250       -0.65070        0.69640
H         -1.87730       -0.93040        0.81450
H         -3.13340       -0.33040       -1.31180
H         -1.79890        0.82370       -1.78270
H          0.86900       -1.68210       -1.43500
H          0.80300       -0.54450       -3.57530
