10
gdb 1383	8.8021	1.51495	1.2925	5.8384	47.28	-0.2635	-0.1036	0.1599	820.9676	0.064558	-396.486463	-396.479459	-396.478515	-396.51828	22.54
O         -0.36750        0.05520        0.00440
C         -0.09640        1.22070        0.00890
N          1.19380        1.76290        0.00010
C          2.40700        1.07220       -0.01450
O          2.54190       -0.11900       -0.02300
C          3.61270        2.04200       -0.02110
O          4.74020        1.64650       -0.03430
H         -0.85210        2.03110        0.01930
H          1.24140        2.77260        0.00510
H          3.36680        3.13080       -0.01290
