14
gdb 3621	5.44299	3.7289	3.4507	1.8913	58.33	-0.2278	0.0765	0.3043	493.0965	0.116433	-287.349937	-287.345518	-287.344574	-287.377721	18.771
C         -0.05820        1.59240        0.11920
C          1.48380        1.53250       -0.03420
C          2.00520        0.59970        1.07800
C          0.95640       -0.45810        1.08270
C          0.01420        0.05030       -0.02760
C          1.35420        0.18780       -0.82270
N          2.16670       -0.61320        0.20430
H         -0.47580        2.01060        1.04000
H         -0.53150        2.05770       -0.75170
H          2.08930        2.38060       -0.34610
H          2.68200        0.80940        1.89700
H          0.75620       -1.13310        1.90570
H         -0.83010       -0.56380       -0.33280
H          1.50090        0.03750       -1.88990
