18
gdb 13023	2.51284	2.47518	1.59263	2.3404	66.43	-0.2257	0.0664	0.2921	864.0145	0.153628	-384.923889	-384.91619	-384.915246	-384.955347	30.001
C         -0.01600        1.57270       -0.03970
C          0.03070        0.04670        0.02350
C          0.79390       -0.60820       -1.14860
O          1.33840       -1.83960       -0.66750
C          1.50150       -1.71710        0.71960
C          2.25170       -0.51380        1.26630
C          0.73180       -0.55200        1.24170
O          0.01660       -0.64900        2.43430
H          0.99230        2.00100       -0.03120
H         -0.52090        1.92050       -0.94710
H         -0.56410        1.98320        0.81520
H         -0.99390       -0.34480        0.05360
H          0.15570       -0.83630       -2.00660
H          1.60220        0.05260       -1.49760
H          1.55670       -2.67220        1.22730
H          2.70920       -0.65140        2.24040
H          2.79860        0.13710        0.59220
H          0.08320        0.19640        2.89160
