16
gdb 10513	3.53002	1.34142	1.1138	2.425	61.24	-0.2572	-0.0322	0.225	1057.7545	0.127925	-420.85682	-420.848377	-420.847432	-420.890545	29.797
O          0.78690       -1.65240       -0.18330
C         -0.09590       -0.82030       -0.89590
C         -1.44720       -0.69150       -0.20220
C         -2.40300        0.32940       -0.79220
C         -1.89800        1.75340       -0.63160
O         -1.88210        2.57370       -1.51180
C         -1.94650       -1.80900        0.60660
O         -1.33800       -0.66430        1.23350
H          0.74240       -1.35790        0.73620
H          0.32540        0.18950       -1.04110
H         -0.23180       -1.25850       -1.89100
H         -2.58840        0.13750       -1.85350
H         -3.35950        0.26460       -0.25800
H         -1.54830        1.99700        0.39600
H         -3.01610       -1.91320        0.77880
H         -1.36050       -2.72220        0.66300
