14
gdb 17598	3.29575	1.73205	1.34357	0.3966	59.09	-0.245	-0.0789	0.1661	920.8373	0.103966	-419.675851	-419.667576	-419.666632	-419.709506	28.189
C          0.45970        1.27350       -0.51320
C          0.52420       -0.10680       -1.11320
O          1.54990       -0.68900       -1.37910
C         -0.84240       -0.73280       -1.48100
O         -1.69130       -0.03490       -1.98920
C         -1.08250       -2.18500       -1.21100
C         -0.03970       -3.22200       -1.38430
O         -0.39150       -2.74880       -0.09300
H         -0.18590        1.91080       -1.12350
H          0.00100        1.21730        0.48160
H          1.46330        1.69140       -0.43190
H         -2.12910       -2.46700       -1.31500
H         -0.37490       -4.23140       -1.61840
H          0.94460       -2.92970       -1.73380
