19
gdb 6192	3.76424	1.54826	1.46356	3.2021	72.33	-0.2537	0.0326	0.2863	963.562	0.165804	-365.097538	-365.089464	-365.08852	-365.129558	31.032
C         -0.26820        1.59190        0.02990
C          0.06480        0.09840        0.01760
C         -1.22090       -0.74260       -0.06200
C          1.01510       -0.27580       -1.14110
O          1.73370       -1.43990       -0.70570
C          1.72780       -1.51170        0.66200
N          2.30120       -2.41270        1.33450
C          0.92890       -0.35300        1.21470
H          0.63730        2.20370        0.10210
H         -0.80140        1.88520       -0.88150
H         -0.91070        1.84220        0.88040
H         -1.80210       -0.48530       -0.95400
H         -0.99580       -1.81300       -0.10350
H         -1.85430       -0.56680        0.81350
H          0.49480       -0.53040       -2.06840
H          1.73120        0.53030       -1.34940
H          2.78510       -3.06570        0.71500
H          1.62140        0.44200        1.51740
H          0.36070       -0.65030        2.09720
