16
gdb 11842	4.89392	1.3588	1.29269	3.1343	69.46	-0.2366	0.0154	0.252	975.755	0.131346	-342.756368	-342.749027	-342.748082	-342.788357	27.649
N         -0.24490       -1.17540       -0.32900
C         -0.12880       -0.03750       -0.15710
C          0.05360        1.39950        0.04760
C         -0.15060        1.86660        1.52540
C          1.37300        1.99980        1.57990
C          2.22130        2.90800        2.40460
C          2.30420        1.39920        2.58760
N          1.47280        1.84860        0.11800
H         -0.52810        1.93710       -0.70720
H         -0.68710        2.81520        1.58900
H         -0.60630        1.13710        2.19440
H          3.05030        3.40260        1.90910
H          1.74550        3.49670        3.18250
H          1.88440        0.95970        3.48700
H          3.19390        0.89620        2.22070
H          2.14340        1.15570       -0.20070
