17
gdb 10554	2.83657	1.64043	1.27083	2.023	70.65	-0.239	0.046	0.2849	1004.3863	0.140577	-363.792448	-363.783694	-363.78275	-363.825813	32.038
O         -0.30190        0.58010       -1.12040
C         -0.07630        0.24990        0.24860
C         -1.28710       -0.53860        0.73980
C         -1.34770       -1.95760        0.18000
C         -2.65350       -2.46270       -0.35050
N         -1.56950       -2.13780       -1.27540
C         -0.41370       -2.88150        0.78040
C          0.36720       -3.62070        1.31910
H          0.54210        0.78810       -1.53020
H          0.83340       -0.35430        0.36940
H          0.04310        1.16300        0.85130
H         -1.27080       -0.58210        1.83400
H         -2.19000        0.00980        0.44710
H         -2.88540       -3.52050       -0.27190
H         -3.51040       -1.79760       -0.26950
H         -1.68910       -1.21540       -1.68700
H          1.05240       -4.28920        1.77840
