17
gdb 12403	3.02384	2.14561	1.33627	3.2454	65.5	-0.2607	0.0113	0.272	905.8709	0.144177	-401.020462	-401.013209	-401.012265	-401.051905	27.982
O          0.01720        1.40270        0.12370
C         -0.00170        0.00810       -0.00850
C         -1.43040       -0.53700        0.04010
C         -1.38360       -2.04960       -0.18720
C         -0.72170       -2.34770       -1.52640
O          0.56530       -1.71440       -1.68530
C          0.71330       -0.42830       -1.28010
N          1.49160        0.38990       -1.85280
H          0.70340        1.70830       -0.49130
H          0.56190       -0.46620        0.81810
H         -1.88290       -0.28440        1.00310
H         -2.02600       -0.04510       -0.73870
H         -0.82050       -2.53530        0.61900
H         -2.38800       -2.48620       -0.18800
H         -0.52780       -3.41430       -1.65970
H         -1.36620       -2.01240       -2.35060
H          1.92930       -0.02090       -2.67750
