15
gdb 20947	7.42839	1.09478	0.97197	4.8993	64.17	-0.2347	-0.0313	0.2034	1160.8	0.119346	-395.937485	-395.929905	-395.928961	-395.970331	26.749
C         -0.03960        1.53570        0.05060
C         -0.03360        0.02870       -0.18060
N         -1.33940       -0.53930        0.14100
C         -1.54770       -1.89200        0.06030
N         -2.73240       -2.42400       -0.13740
O         -2.53380       -3.78880       -0.08150
N         -1.22950       -4.09290        0.13240
C         -0.60240       -2.95450        0.22270
H          0.94370        1.95850       -0.17080
H         -0.76810        2.03120       -0.60100
H         -0.29510        1.76900        1.08800
H          0.26470       -0.19230       -1.21780
H          0.71270       -0.43790        0.47240
H         -2.12820        0.00050       -0.18860
H          0.46120       -2.91880        0.39450
