18
gdb 4542	3.77115	1.70485	1.20057	3.4364	75.94	-0.2027	0.0387	0.2414	1031.3012	0.153685	-344.041032	-344.032184	-344.03124	-344.074948	30.975
C         -0.02010        1.46690        0.01480
N         -0.03010        0.01910        0.00000
C         -0.03380       -0.77850       -1.13000
C          0.02490       -2.07210       -0.68520
C          0.03550       -3.33550       -1.48290
N          0.07010       -2.08630        0.69330
C          0.04040       -0.82600        1.07550
C          0.07500       -0.35920        2.49330
H          0.99660        1.86840       -0.07050
H         -0.61530        1.84810       -0.81850
H         -0.45980        1.83300        0.94450
H         -0.08280       -0.35090       -2.11860
H          0.93850       -3.92210       -1.28100
H         -0.82100       -3.97030       -1.23000
H         -0.00140       -3.12530       -2.55560
H          0.94760        0.27030        2.70380
H         -0.81830        0.21690        2.76370
H          0.12200       -1.23770        3.13770
