18
gdb 8304	7.04252	0.84919	0.79855	3.0755	68.95	-0.2411	-0.0178	0.2233	1385.2153	0.151995	-384.943683	-384.935003	-384.934059	-384.977756	31.076
O         -0.16210        1.45860        0.12150
C         -0.01520        0.04770        0.09330
C         -1.39980       -0.56160       -0.09080
C         -1.38530       -2.08370       -0.13360
C         -1.07470       -2.84910        1.19630
C         -2.31460       -3.71640        0.92540
O         -2.72450       -4.74310        1.38210
C         -2.76830       -2.80490       -0.22580
H          0.70660        1.85050        0.24900
H          0.64150       -0.27000       -0.73370
H          0.43660       -0.32560        1.02700
H         -2.04480       -0.21700        0.72810
H         -1.83210       -0.16440       -1.01720
H         -0.72320       -2.43140       -0.93340
H         -0.12430       -3.38110        1.28670
H         -1.21080       -2.22840        2.09020
H         -3.60570       -2.16440        0.07520
H         -3.03350       -3.30380       -1.16130
