16
gdb 16650	3.44195	2.27238	1.53755	4.6584	65.34	-0.2434	0.0339	0.2773	829.0466	0.132389	-379.938489	-379.931374	-379.93043	-379.969826	26.243
C         -0.04720        1.38570        0.00850
N         -0.01660       -0.05670        0.00990
C         -1.20820       -0.87620        0.05790
C         -0.62540       -2.28210       -0.01720
C          0.22790       -2.63510       -1.17370
N          0.84270       -2.18640        0.09960
C          1.15590       -0.77540        0.05180
O          2.27310       -0.32170        0.05260
H          0.98650        1.73540       -0.00350
H         -0.57010        1.77190       -0.87520
H         -0.54900        1.77570        0.90360
H         -1.76030       -0.73110        0.99790
H         -1.89520       -0.64510       -0.76780
H         -1.10050       -3.06400        0.56500
H          0.40770       -3.67740       -1.41650
H          0.26670       -1.95030       -2.01740
