15
gdb 3987	4.0936	1.01953	0.96086	3.6963	62.29	-0.2646	-0.0126	0.252	1209.8175	0.115763	-436.915926	-436.90686	-436.905916	-436.95116	30.325
C          0.99560        0.71110        0.00430
C         -0.23520       -0.14770        0.00890
C         -0.69600       -0.75880        1.30630
O          0.32760       -1.59270        1.88190
C          0.32170       -2.89650        1.53110
O          1.15310       -3.66470        1.90860
N         -0.96940       -0.42930       -0.99960
O         -0.52760        0.18650       -2.17090
H          1.70220        0.35750        0.75890
H          1.46880        0.70640       -0.97780
H          0.73670        1.74940        0.24640
H         -0.88420        0.01300        2.05860
H         -1.61710       -1.32460        1.13880
H         -0.53130       -3.16260        0.87840
H         -1.14700       -0.15050       -2.82730
