15
gdb 20946	7.57383	1.13128	0.99933	1.8845	63.66	-0.2293	-0.0082	0.2211	1138.0301	0.120008	-395.984109	-395.976556	-395.975611	-396.016781	26.624
C         -0.04470        1.52460       -0.07240
C         -0.01960        0.01440        0.13300
N         -1.35700       -0.54460       -0.01250
C         -1.55470       -1.88850       -0.00350
N         -0.58750       -2.77630       -0.12030
O         -1.29710       -4.00390       -0.11710
C         -2.57880       -3.68890        0.01690
N         -2.82950       -2.42290        0.09570
H          0.96250        1.93730        0.02790
H         -0.42650        1.77860       -1.06550
H         -0.67950        2.01600        0.67410
H          0.62190       -0.46420       -0.61360
H          0.40860       -0.23310        1.11620
H         -2.12570       -0.01450        0.36880
H         -3.28640       -4.50530        0.04710
