14
gdb 18213	4.51997	1.68116	1.3255	4.0482	65.17	-0.2551	-0.0661	0.1891	885.2871	0.107304	-382.539256	-382.532724	-382.53178	-382.57012	24.427
O         -0.05170       -0.03990       -0.02070
C          0.00820        1.16660        0.06480
C          1.25640        1.93070        0.03850
C          1.35300        3.27130        0.08110
C          2.78170        3.74760       -0.03390
C          3.57690        2.44480       -0.07040
O          3.43450        1.65360        1.10760
C          2.62150        1.32140       -0.03840
H         -0.91140        1.78610        0.15900
H          0.51320        3.94840        0.20050
H          2.92990        4.34000       -0.94630
H          3.07550        4.38470        0.80910
H          4.54610        2.39620       -0.55840
H          2.78730        0.34060       -0.46840
