19
gdb 17630	3.30132	1.43618	1.08657	1.5043	67.48	-0.2463	0.0608	0.307	1109.1619	0.163596	-402.162369	-402.152888	-402.151944	-402.197018	34.077
C         -0.06050        1.53740        0.27710
C         -0.05980        0.01690        0.15170
O          0.19220       -0.62460        1.39690
C         -1.35720       -0.51460       -0.49200
O         -1.54370        0.05010       -1.79100
C         -1.39210       -2.02760       -0.53100
C         -2.28460       -2.79340        0.37050
N         -2.58590       -2.70100       -1.06630
H          0.89440        1.88880        0.67650
H         -0.24060        2.00290       -0.69450
H         -0.85770        1.86560        0.95730
H          0.77600       -0.29260       -0.49140
H         -0.45740       -0.30150        2.03110
H         -2.21640       -0.15020        0.09050
H         -0.95760       -0.41320       -2.40000
H         -0.45560       -2.49320       -0.83850
H         -1.98980       -3.77940        0.71760
H         -2.89830       -2.23390        1.07260
H         -3.31240       -2.00780       -1.23390
