14
gdb 3315	6.80392	2.03241	1.8169	4.1059	59.14	-0.2355	0.0233	0.2588	701.8646	0.114358	-324.557693	-324.551601	-324.550657	-324.587834	22.436
O          0.00710        0.07200       -0.27680
C          0.05940        1.26270       -0.05230
N          1.19180        1.93830        0.27250
C          2.59270        1.51800        0.07510
C          2.96960        3.00130       -0.08160
C          2.15040        3.64800       -1.17140
C          1.50690        3.35620        0.15660
H         -0.82960        1.92770       -0.04760
H          3.00890        1.04630        0.96980
H          2.74690        0.86400       -0.78870
H          3.84950        3.46400        0.34150
H          2.37990        4.69310       -1.35430
H          1.85480        3.08400       -2.05210
H          1.05290        4.09490        0.80540
