20
gdb 18991	4.00311	2.11884	1.95504	0.1172	77.17	-0.2735	0.0896	0.3631	798.355	0.181437	-311.846278	-311.840344	-311.8394	-311.875861	25.961
C         -0.05480        1.53370       -0.25030
C          1.45840        1.63280        0.11630
C          1.47670        0.11830        0.47540
C          1.40030       -0.31490        1.95170
C          0.44630       -1.54810        1.83410
C         -0.60030       -0.44590        1.46700
C          0.15540        0.44140        2.49680
C         -0.04800        0.01840        0.10600
H         -0.72970        2.15160        0.34900
H         -0.26480        1.73400       -1.30380
H          2.09910        1.88890       -0.73100
H          1.70400        2.31100        0.93870
H          2.18170       -0.48920       -0.09670
H          2.33250       -0.35770        2.51730
H          0.67870       -2.30690        1.07990
H          0.24380       -2.02180        2.79760
H         -1.67450       -0.62010        1.54640
H         -0.07490        0.15330        3.52510
H          0.10590        1.52920        2.40720
H         -0.33380       -0.65400       -0.70620
