16
gdb 14010	4.3768	1.28975	1.18069	2.6741	66.7	-0.2511	-0.0264	0.2247	1026.7215	0.129407	-383.707903	-383.700324	-383.69938	-383.740354	27.264
O         -0.11770        0.03480       -0.40560
C          0.00530        1.15790        0.01500
C          1.27160        1.92230        0.03720
C          1.18800        3.44260       -0.12240
C          1.53990        2.86540        1.19320
C          0.82160        2.98930        2.53760
O          2.08600        3.15270        3.21390
C          2.83460        3.00180        1.98880
H         -0.86910        1.71780        0.42690
H          2.12270        1.40790       -0.39750
H          1.96320        3.91570       -0.71570
H          0.19730        3.87160       -0.24690
H          0.17470        3.86840        2.65300
H          0.28500        2.09760        2.88560
H          3.47880        2.11340        2.00650
H          3.44280        3.88730        1.76360
