23
gdb 6558	3.60625	1.23514	1.19412	1.015	82.39	-0.2301	0.0791	0.3093	1179.504	0.210183	-330.305632	-330.296063	-330.295119	-330.339322	36.404
C         -0.01020        1.54390        0.12670
C          0.01240        0.00980        0.00760
C          0.78320       -0.59110        1.19650
C         -1.42830       -0.53110        0.00730
C          0.66910       -0.39610       -1.33020
N          2.05300        0.05580       -1.45150
C          3.10160       -0.92870       -1.20520
C          2.80100       -0.46860       -2.58760
H          1.00110        1.95100        0.05210
H         -0.61210        1.99060       -0.67280
H         -0.44310        1.85510        1.08370
H          0.28620       -0.34410        2.14100
H          0.83620       -1.68390        1.12690
H          1.80460       -0.20390        1.24490
H         -2.00370       -0.13090       -0.83530
H         -1.44540       -1.62470       -0.06410
H         -1.94930       -0.24980        0.92860
H          0.58770       -1.49180       -1.46130
H          0.10290        0.06410       -2.15030
H          3.98070       -0.56710       -0.67910
H          2.79790       -1.94110       -0.94280
H          2.29820       -1.17600       -3.24610
H          3.45430        0.23730       -3.09300
