13
gdb 9006	8.32573	0.83092	0.7626	3.8399	69.23	-0.2685	-0.0882	0.1803	1404.8868	0.092207	-361.456944	-361.447877	-361.446933	-361.492872	29.192
C          0.09450        1.50280       -0.00350
C          0.03040        0.05070        0.05210
C         -0.02520       -1.14970        0.09740
C         -0.10080       -2.59700        0.14970
C         -1.47610       -3.16360       -0.18530
O         -2.45260       -2.52900       -0.47510
C         -1.53030       -4.64300       -0.12580
N         -1.55940       -5.79780       -0.07580
H          0.82700        1.83950       -0.74480
H         -0.87760        1.92610       -0.27790
H          0.38100        1.92470        0.96580
H          0.61540       -3.07000       -0.53900
H          0.17110       -2.98600        1.14260
