18
gdb 5615	3.1437	1.78748	1.2424	1.7951	74.86	-0.1749	0.0565	0.2314	1004.142	0.155158	-344.019692	-344.011179	-344.010235	-344.052477	31.768
C          0.07480        1.54630       -0.05150
C         -0.00460        0.01110        0.04110
C         -1.40590       -0.52710        0.03320
C         -2.15380       -0.92610        1.12100
N         -3.37440       -1.35240        0.67770
C         -3.43900       -1.22690       -0.69520
C         -2.23010       -0.72200       -1.12190
N         -1.80450       -0.51860       -2.45370
H          1.11470        1.89010       -0.05930
H         -0.40600        1.92120       -0.96220
H         -0.43450        2.01350        0.79730
H          0.55610       -0.42720       -0.79460
H          0.50550       -0.31490        0.95500
H         -1.90150       -0.94490        2.16970
H         -4.11110       -1.70810        1.25850
H         -4.31950       -1.51710       -1.24550
H         -2.57570       -0.56330       -3.10840
H         -1.34050        0.37400       -2.57460
