16
gdb 19088	3.38098	2.42493	1.83294	3.2922	63.09	-0.2456	0.0875	0.3332	756.9977	0.13231	-383.714786	-383.708589	-383.707645	-383.744895	24.648
C          0.18280        1.38960       -0.42130
C          1.34300        2.13530        0.20300
O          1.26000        2.44430        1.59610
C          2.24670        1.50030        1.17370
C          2.07370        0.06100        1.60980
C          0.77600       -0.58760        1.17710
O         -0.44440        0.02460        1.60000
C         -0.12770        0.04750        0.20640
H         -0.71430        2.02160       -0.39350
H          0.41300        1.22580       -1.48250
H          1.73440        2.95250       -0.40540
H          3.26990        1.87350        1.24400
H          2.90410       -0.52470        1.19330
H          2.16730       -0.00320        2.70160
H          0.76920       -1.67650        1.24980
H         -0.76640       -0.59750       -0.39960
