16
gdb 6002	2.46476	1.75394	1.63197	2.6775	67.08	-0.2452	-0.026	0.2192	924.0109	0.125155	-383.722836	-383.713194	-383.71225	-383.757008	34.343
C          0.74420        1.16940        0.21190
C         -0.32550        0.13340       -0.04300
O         -1.23690       -0.08380        0.71440
C         -0.18860       -0.68900       -1.36600
C         -1.55170       -1.24190       -1.79790
O          0.34220        0.21570       -2.33670
C          0.76440       -1.77380       -1.09830
C          1.55640       -2.65570       -0.89490
H          1.73840        0.73700        0.06720
H          0.64720        1.98060       -0.51550
H          0.63610        1.55820        1.22480
H         -2.21900       -0.40880       -2.03150
H         -1.43770       -1.87040       -2.68550
H         -1.99380       -1.83270       -0.99460
H          0.65390       -0.30630       -3.08370
H          2.25190       -3.43740       -0.71040
