20
gdb 6045	2.83529	1.64298	1.36625	2.5769	71.36	-0.2399	-0.0103	0.2295	1025.8172	0.172441	-386.157992	-386.14776	-386.146815	-386.193342	36.402
C          0.08980        1.38030        0.20440
O         -0.04530       -0.02380        0.21610
C         -1.35430       -0.56270        0.03540
C         -2.31010       -0.15150        1.16900
C         -1.94110       -0.20650       -1.34170
C         -1.19100       -2.10310        0.09320
C          0.19250       -2.67260        0.30910
O         -2.16810       -2.80540       -0.03510
H          1.15180        1.58870        0.35670
H         -0.21590        1.82500       -0.75220
H         -0.47660        1.86480        1.01100
H         -2.58060        0.90590        1.10010
H         -3.22320       -0.74630        1.10210
H         -1.84750       -0.32910        2.14480
H         -1.21840       -0.42280       -2.13470
H         -2.83850       -0.80380       -1.51480
H         -2.21350        0.85110       -1.39890
H          0.61470       -2.29610        1.24560
H          0.13330       -3.76140        0.32420
H          0.86870       -2.33390       -0.48150
