12
gdb 1076	7.66386	1.97544	1.58613	1.1142	50.99	-0.2382	0.0079	0.2461	718.2476	0.091162	-360.532987	-360.526716	-360.525772	-360.563644	21.719
O         -0.01750        1.42080        0.00770
C          0.00010        0.00360        0.00220
C         -1.41230       -0.47460        0.01250
C         -2.56050        0.24220        0.02420
O         -3.60800       -0.64190        0.03040
C         -3.01830       -1.85570        0.02160
N         -1.72620       -1.83120        0.01090
H          0.89160        1.73240        0.00150
H          0.51160       -0.39690       -0.88790
H          0.52680       -0.40370        0.88010
H         -2.80030        1.28950        0.02950
H         -3.67120       -2.71430        0.02440
