15
gdb 19667	5.96945	1.63909	1.53009	1.2669	70.1	-0.2381	0.0454	0.2834	835.2135	0.119467	-325.416022	-325.409683	-325.408739	-325.446288	25.27
C         -0.10320       -1.15440       -0.13820
C         -0.02620        0.04330       -0.06230
C          0.06410        1.48760        0.03180
C         -0.04110        1.99710        1.48220
C          1.42600        1.97800        1.66530
C          1.53100        2.03640        0.09310
C          1.29390        3.54370        0.26350
N          0.71380        3.28760        1.62480
H         -0.17330       -2.21150       -0.20850
H         -0.58580        1.96300       -0.71310
H         -0.83400        1.81120        2.19350
H          2.07480        1.65340        2.46680
H          2.29670        1.61110       -0.55110
H          2.21530        4.11790        0.38700
H          0.62990        4.05210       -0.44590
