17
gdb 13497	3.23132	1.66049	1.42604	3.4165	64.24	-0.2214	0.005	0.2264	943.3889	0.141648	-401.002689	-400.994436	-400.993492	-401.035632	29.406
C          0.01210        1.50210       -0.11750
N          0.03860        0.05220        0.04920
C          0.83100       -0.34720        1.20750
C         -1.26770       -0.54370       -0.01460
C         -1.41930       -2.08050       -0.10680
O         -2.29350       -2.08060        1.06400
C         -2.13600       -0.72790        1.26400
O         -2.55270       -0.07340        2.16450
H          1.03830        1.87250       -0.20330
H         -0.51800        1.75790       -1.04020
H         -0.47410        2.03070        0.71930
H          0.41870        0.02040        2.16220
H          0.90440       -1.43690        1.26410
H          1.84600        0.04550        1.09830
H         -1.84810       -0.03540       -0.78980
H         -1.94170       -2.46560       -0.98440
H         -0.51290       -2.65770        0.08220
