16
gdb 11249	4.95797	1.21895	1.07765	1.7262	67.26	-0.2481	-0.0347	0.2134	1069.7981	0.130059	-383.754152	-383.746411	-383.745467	-383.787273	28.075
O          0.02950        1.45280        0.04210
C          0.08390        0.03400        0.03180
C         -1.30880       -0.65670        0.07010
C         -1.23810       -1.85940       -0.90950
C         -2.46840       -1.95790       -1.79370
O         -3.13950       -2.94390       -1.94490
C          0.01430       -1.55930       -1.71630
C          0.72120       -0.55450       -1.20470
H         -0.39290        1.73300       -0.77800
H          0.67170       -0.21340        0.92440
H         -1.61060       -0.95730        1.07490
H         -2.05050        0.07180       -0.28170
H         -1.14370       -2.81750       -0.38570
H         -2.71160       -1.00460       -2.32300
H          0.28900       -2.15040       -2.58320
H          1.66960       -0.18870       -1.58270
