15
gdb 9082	6.12898	0.90182	0.81093	3.3987	64.79	-0.2717	0.0018	0.2734	1323.7613	0.118334	-395.973981	-395.965061	-395.964117	-396.008866	29.918
N         -0.10430        1.43450       -0.01230
C          0.01000       -0.02010       -0.04030
C          0.69860       -0.60340       -1.29110
O         -0.07240       -0.15340       -2.39840
C          0.39250       -0.46460       -3.62960
N         -0.24470       -0.08660       -4.64810
C          0.71750       -0.49830        1.15600
N          1.30580       -0.88940        2.06960
H          0.81910        1.85920       -0.00470
H         -0.56360        1.73070       -0.86890
H         -1.00740       -0.43040       -0.01140
H          1.73090       -0.23460       -1.35690
H          0.71720       -1.69990       -1.24670
H          1.32510       -1.04420       -3.61210
H          0.22830       -0.39680       -5.49420
