13
gdb 20378	6.52637	1.54263	1.38523	5.1546	59.94	-0.3039	-0.0448	0.2591	860.636	0.096762	-390.892123	-390.885831	-390.884887	-390.923536	22.462
C         -0.09870        1.46330       -0.09720
C          1.29070        0.90520        0.07610
C          0.10570       -0.02110        0.03830
N         -0.30970       -0.68060        1.24600
N         -0.25250       -0.15200        2.45630
N         -0.71920       -1.07330        3.24970
N         -1.05450       -2.14850        2.52180
N         -0.80090       -1.90960        1.26750
H         -0.53810        1.97280        0.75200
H         -0.40530        1.83150       -1.06920
H          1.96250        0.88050       -0.77390
H          1.76580        1.04730        1.03940
H         -0.05170       -0.67570       -0.80750
