16
gdb 1520	7.06321	1.36106	1.27189	2.2518	58.55	-0.2487	0.0639	0.3125	985.298	0.135762	-362.960595	-362.951948	-362.951004	-362.994963	28.628
C          0.44200        1.28490        0.05390
C         -0.45940        0.07620       -0.21220
N         -0.08480       -0.67410       -1.39780
C          0.68260       -1.79560       -1.32960
O          1.02960       -2.35990       -0.31500
O          0.99870       -2.21300       -2.58490
C          1.78170       -3.40650       -2.63290
H          1.47700        0.96560        0.20590
H          0.42060        1.98950       -0.78460
H          0.11110        1.81940        0.95030
H         -0.40910       -0.62520        0.62330
H         -1.50290        0.39570       -0.31510
H         -0.21560       -0.26540       -2.30880
H          2.72840       -3.27490       -2.10230
H          1.24390       -4.24570       -2.18370
H          1.96390       -3.59790       -3.69110
