22
gdb 11376	4.23519	1.19047	1.01744	0.2114	84.79	-0.2238	0.0341	0.2579	1258.764	0.200609	-313.099899	-313.090984	-313.09004	-313.133577	33.373
C          0.12590        1.54570       -0.16050
C         -0.09400        0.04320        0.09120
C          0.64100       -0.47980        1.29090
C          0.10220       -0.97460        2.40830
C          1.13860       -1.46010        3.39070
C          2.45920       -0.85600        2.84040
C          3.70140       -1.71200        3.08110
C          2.15550       -0.56250        1.34800
H          1.18250        1.77440       -0.33120
H         -0.43200        1.87830       -1.04150
H         -0.20910        2.13690        0.69750
H         -1.16600       -0.15160        0.21030
H          0.22550       -0.51250       -0.80220
H         -0.96490       -1.06800        2.58600
H          0.93900       -1.15080        4.42370
H          1.17860       -2.56060        3.40480
H          2.60290        0.11190        3.33710
H          3.60120       -2.69180        2.59930
H          4.60100       -1.23410        2.67820
H          3.86760       -1.88320        4.15040
H          2.51190       -1.37790        0.69850
H          2.65690        0.34590        0.99470
