12
gdb 613	7.11842	2.52096	2.1016	4.3878	47.84	-0.2437	-0.0148	0.2289	586.8932	0.095101	-306.355655	-306.349478	-306.348534	-306.385395	21.753
O          0.05620        1.40850       -0.02620
C          0.04380        0.01320        0.01890
C         -0.49570       -0.68580        1.22070
C         -1.31160       -0.65480       -0.07740
C         -2.54360        0.17240       -0.10050
O         -3.54630       -0.13430       -0.69760
H          0.75850        1.71940        0.55480
H          0.84580       -0.47310       -0.53590
H         -0.07560       -1.63650        1.52750
H         -0.86200       -0.05870        2.02760
H         -1.37960       -1.56700       -0.65890
H         -2.48370        1.11010        0.49100
