15
gdb 17480	3.64118	2.56837	1.99363	2.3126	64.42	-0.2286	-0.0051	0.2236	703.2692	0.120109	-362.607153	-362.601178	-362.600234	-362.636669	24.997
O          0.10010        1.41210       -0.10690
C          0.02540        0.02680        0.01550
C          0.30330       -0.77090       -1.29760
N         -0.84040       -1.69340       -1.04730
C         -0.87490       -2.06990        0.45240
C          0.33720       -1.88550        1.28670
C          0.83070       -0.65540        1.09470
C         -1.34300       -0.74750       -0.01070
H         -0.01560        1.79960        0.76740
H          0.04240       -0.16370       -2.16760
H          1.28730       -1.23220       -1.42690
H         -1.56120       -2.89190        0.61360
H          0.77390       -2.67310        1.88720
H          1.77070       -0.25850        1.46030
H         -2.35340       -0.34940        0.00680
