12
gdb 20480	5.23109	2.1628	1.55266	2.3331	55.32	-0.1978	0.0259	0.2238	735.6358	0.086901	-414.631224	-414.625411	-414.624467	-414.661126	21.759
C          0.05030        1.39360       -0.13070
O          1.44940        1.80130       -0.01370
C          1.98070        0.70690        0.58880
C          1.14950       -0.36650        0.59370
O         -0.03110       -0.03230       -0.05240
C          1.88190       -1.41290        1.16640
N          3.10760       -0.97640        1.50320
N          3.15360        0.33920        1.12430
H         -0.49890        1.84560        0.70840
H         -0.33090        1.73250       -1.09490
H          1.61140       -2.43840        1.36090
H          3.98230        0.87670        1.30790
