16
gdb 17906	2.90133	2.35547	2.17061	2.5603	63.17	-0.2286	-0.0221	0.2065	743.0305	0.133041	-383.757604	-383.751301	-383.750357	-383.788012	24.627
O          0.00420        0.04760        0.02040
C         -0.01320        1.24390        0.00680
C         -1.16530        2.26130        0.02080
C         -0.79910        3.03830        1.31220
C          0.77560        3.06780        1.29170
C          1.10540        2.29870        0.00200
O          0.72690        3.10310       -1.12260
C         -0.72500        3.11110       -1.17980
H         -2.17260        1.85450       -0.03350
H         -1.23270        4.04180        1.30670
H         -1.17490        2.51880        2.19730
H          1.17560        4.08260        1.23730
H          1.20160        2.57660        2.17170
H          2.12720        1.94930       -0.12920
H         -1.04970        2.68100       -2.13520
H         -1.08200        4.14660       -1.12200
