15
gdb 18852	3.61384	2.50311	2.05525	4.0082	63.71	-0.2418	0.0019	0.2437	703.9721	0.121671	-362.654949	-362.649173	-362.648229	-362.684709	23.147
O          0.03450        0.07120        0.28220
C         -0.05700        1.24480        0.08240
C         -1.14450        2.25140       -0.09110
C         -0.75420        3.46340        0.81660
C          0.20970        3.22840        1.98080
C          1.47320        2.66090        1.26320
N          0.99390        2.24950       -0.08140
C         -0.05110        3.24060       -0.46760
H         -2.15130        2.12670       -0.46870
H         -1.52820        4.21980        0.89210
H          0.42250        4.16880        2.49780
H         -0.19530        2.52880        2.71790
H          2.24570        3.42560        1.14470
H          1.91170        1.79880        1.76890
H          0.04500        3.87500       -1.33670
