17
gdb 5747	4.74351	1.77907	1.39774	2.043	75.97	-0.1953	0.054	0.2493	905.9787	0.144342	-326.732943	-326.725944	-326.724999	-326.764333	26.739
C         -0.28130        1.54780        0.06320
C         -0.00730        0.04810        0.02620
C          0.71960       -0.50870       -1.26680
N          1.80880       -0.92560       -0.37340
C          2.99400       -1.55170       -0.10910
C          3.14890       -1.46940        1.26770
C          2.02380       -0.79090        1.83930
C          1.21940       -0.47570        0.76680
H          0.62030        2.11820       -0.18180
H         -1.06880        1.82250       -0.64710
H         -0.60980        1.85430        1.06130
H         -0.92590       -0.50720        0.24540
H          0.21630       -1.33770       -1.77350
H          1.01160        0.25000       -1.99990
H          3.62300       -1.98020       -0.87190
H          3.99610       -1.85430        1.81640
H          1.86220       -0.58350        2.88520
