18
gdb 17788	6.02214	1.08467	1.06772	2.7137	69.01	-0.236	0.0807	0.3166	1163.0813	0.153097	-384.847433	-384.839663	-384.838719	-384.88035	28.376
C         -0.00890        1.38630        0.11360
O         -0.05140       -0.00950       -0.05980
C          0.79870       -0.46150       -1.09450
C          0.71550       -1.97370       -1.12500
C         -0.50550       -2.74540       -1.70020
C         -0.08540       -2.39160       -3.14680
C          1.16190       -2.83210       -2.34200
O          0.36070       -3.94830       -1.78820
H          1.00240        1.73530        0.37710
H         -0.32860        1.92250       -0.79450
H         -0.69200        1.63600        0.92900
H          0.50870       -0.00330       -2.05310
H          1.84090       -0.15390       -0.89740
H          1.04980       -2.40130       -0.17700
H         -1.50090       -2.87270       -1.27600
H         -0.41200       -3.10870       -3.90030
H         -0.16480       -1.35810       -3.48870
H          2.16860       -3.06390       -2.69220
