13
gdb 1424	6.56078	1.38159	1.19923	2.3722	52.52	-0.2745	-0.0483	0.2262	924.2222	0.098321	-381.619786	-381.611962	-381.611018	-381.652734	25.598
C         -0.07690        1.50670       -0.14210
C          0.09700        0.00390        0.02090
O          0.75180       -0.31660        1.25530
C          2.04730       -0.69680        1.21360
O          2.67640       -0.95040        2.19310
C         -1.22940       -0.75510        0.02100
O         -2.19130       -0.40980       -0.60950
H          0.88990        1.99750       -0.27700
H         -0.70730        1.70300       -1.01220
H         -0.56390        1.92690        0.74150
H          0.68670       -0.40540       -0.81630
H          2.44260       -0.74780        0.17940
H         -1.22000       -1.67080        0.65050
