16
gdb 16142	3.98149	1.7417	1.45678	2.9263	65.7	-0.2507	-0.0238	0.2269	871.79	0.131299	-383.743987	-383.737067	-383.736123	-383.775136	26.11
O         -0.17010        0.04300        0.14190
C         -0.01640        1.22590       -0.05040
C          1.28880        1.90740       -0.05230
C          1.36740        3.39110        0.28110
C          1.62850        2.95700       -1.11880
C          3.07370        2.66080       -1.48780
O          3.60950        1.92900       -0.39350
C          2.57010        1.11610        0.14940
H         -0.88580        1.89660       -0.24560
H          0.42950        3.89710        0.48500
H          2.20480        3.70210        0.89710
H          0.92010        3.19710       -1.90330
H          3.10670        2.07690       -2.42160
H          3.69080        3.55600       -1.61640
H          2.81810        0.92730        1.19760
H          2.48880        0.15040       -0.36950
