18
gdb 6340	2.87021	1.52929	1.1652	1.7155	69.43	-0.2474	-0.0379	0.2095	1082.1617	0.150657	-384.987045	-384.977594	-384.97665	-385.022005	32.775
C         -0.14220        1.11160       -1.22080
C          0.30210        0.19170       -0.06670
C          1.19830       -0.93060       -0.55680
O          2.38200       -0.97570       -0.31210
C          0.53520       -2.01280       -1.42910
C          1.01130       -1.87820       -2.88370
C          2.37500       -2.45520       -3.18400
O          0.32660       -1.32070       -3.70870
H          0.71980        1.62390       -1.65810
H         -0.63680        0.55300       -2.02010
H         -0.83570        1.87100       -0.85010
H          0.85630        0.75600        0.68740
H         -0.58200       -0.24900        0.41100
H          0.84540       -2.98130       -1.02530
H         -0.55210       -1.93050       -1.41310
H          2.32610       -3.54950       -3.12840
H          2.70180       -2.15730       -4.18080
H          3.08760       -2.13010       -2.41920
