15
gdb 16194	3.23614	2.49178	1.58215	2.9999	68.83	-0.2183	-0.0048	0.2135	795.6546	0.120991	-358.858158	-358.851409	-358.850464	-358.888873	26.129
N         -0.10410        1.29410        0.01250
C         -0.01970        0.02410        0.00450
N          1.09090       -0.82410       -0.00750
C          0.64470       -2.14070       -0.01230
N         -0.62610       -2.28730       -0.00510
C         -1.15900       -0.94740        0.00610
C         -2.43800       -0.64220        0.76250
C         -2.44750       -0.63350       -0.73040
H          0.81090        1.74460        0.00920
H          2.05120       -0.52550       -0.01180
H          1.36010       -2.95530       -0.02160
H         -2.89290       -1.48000        1.27710
H         -2.45510        0.31060        1.27980
H         -2.47100        0.32520       -1.23630
H         -2.90900       -1.46530       -1.24890
