18
gdb 14155	3.79709	1.62754	1.45183	0.8305	67.94	-0.2282	0.0798	0.308	931.769	0.154312	-384.924964	-384.917318	-384.916373	-384.957189	29.136
O          0.10630        1.18850       -0.30180
C         -0.04640       -0.17300       -0.02590
C         -0.55200       -0.61940        1.33710
C         -1.44960       -0.69030        0.13980
C         -2.66310        0.20860       -0.10190
C         -3.56360       -0.66540       -1.01080
C         -2.61060       -1.78290       -1.46180
O         -1.73070       -1.97580       -0.35870
H          0.83490        1.52400        0.23100
H          0.65460       -0.83880       -0.52890
H         -0.16860       -1.55140        1.73820
H         -0.76540        0.15350        2.06890
H         -3.16850        0.47120        0.83090
H         -2.35490        1.13810       -0.58510
H         -4.39030       -1.09150       -0.43570
H         -3.98850       -0.11180       -1.85150
H         -3.10250       -2.73640       -1.66820
H         -2.04500       -1.47800       -2.35660
