17
gdb 17590	2.77387	2.45299	1.79058	1.259	67.73	-0.2343	0.081	0.3153	817.759	0.140989	-363.798167	-363.7906	-363.789655	-363.829486	29.119
C          0.03530        1.51050       -0.00090
C         -0.06470        0.02500        0.10380
O          1.07290       -0.78300       -0.25720
C          0.52250       -0.94440        1.06500
C          1.41060       -0.75980        2.25040
C         -0.71260       -1.82550        0.93260
N         -1.86490       -0.97610        1.34270
C         -1.30070       -0.85480       -0.03000
H          0.98430        1.86610        0.40890
H         -0.02210        1.83450       -1.04620
H         -0.78610        1.98000        0.54880
H          2.03710        0.12820        2.13210
H          0.80680       -0.64930        3.15620
H          2.07250       -1.62310        2.38250
H         -0.77700       -2.90650        0.92550
H         -2.70490       -1.55360        1.27340
H         -1.89850       -1.05510       -0.91040
