16
gdb 20829	4.98492	1.373	1.13917	2.1197	67.17	-0.2075	0.0255	0.233	1050.4178	0.132988	-376.143461	-376.135589	-376.134645	-376.176237	28.748
C         -0.19360        1.51990        0.04740
C          0.04220        0.00210        0.01880
C          0.79430       -0.48340        1.21610
N          1.97830       -0.05340        1.62750
C          2.20910       -0.80450        2.74390
N          3.33550       -0.61930        3.52200
N          1.25630       -1.67490        3.05210
N          0.35270       -1.43990        2.05210
H          0.75910        2.04730        0.13270
H         -0.69650        1.84860       -0.86660
H         -0.81400        1.80540        0.90220
H         -0.91220       -0.53270       -0.04880
H          0.61210       -0.26010       -0.88060
H          4.12130       -0.26670        2.99570
H          3.57080       -1.42100        4.08880
H         -0.50320       -1.96720        2.02010
