18
gdb 12775	3.70952	1.53295	1.31661	2.6717	67.54	-0.2394	0.0657	0.3052	989.0384	0.152975	-384.894173	-384.886121	-384.885177	-384.926505	30.325
C         -0.08540        1.55450        0.08280
C          0.00660        0.05980       -0.01060
C         -0.78420       -0.90030        0.86530
C          0.70920       -0.97650        0.83950
O          1.16230       -1.72640       -0.29370
C          0.60580       -0.71450       -1.19100
C         -0.25600       -1.34630       -2.26890
O          0.48840       -2.31120       -2.99020
H          0.83400        2.03360       -0.27190
H         -0.91760        1.94310       -0.51630
H         -0.25140        1.87450        1.11630
H         -1.20980       -0.43200        1.74840
H         -1.37250       -1.71550        0.45480
H          1.37050       -0.90640        1.69570
H          1.43530       -0.16360       -1.65380
H         -1.16110       -1.78600       -1.82470
H         -0.57350       -0.58270       -2.98820
H          0.86420       -2.90500       -2.32870
