14
gdb 2525	3.43242	2.13097	1.39606	4.223	55.26	-0.2483	-0.046	0.2024	839.3759	0.10998	-361.705669	-361.697364	-361.696419	-361.739556	26.927
C         -0.44660        1.32090        0.21290
N          0.03460       -0.05700        0.17110
C          0.71710       -0.41110       -1.05960
C          1.57450       -1.65580       -0.82700
O          1.78030       -2.50830       -1.64520
C         -0.30230       -0.69420       -2.16680
O         -0.23070       -0.25390       -3.28030
H          0.34330        2.07160        0.04060
H         -1.21520        1.46860       -0.55260
H         -0.90580        1.51370        1.18590
H          0.63350       -0.24010        0.96960
H          1.40310        0.37250       -1.43980
H          2.02150       -1.70710        0.19510
H         -1.13810       -1.34450       -1.82930
