18
gdb 7422	3.27448	1.46097	1.17298	0.3503	68.64	-0.2367	-0.0812	0.1555	1089.0529	0.149838	-384.983963	-384.974128	-384.973184	-385.019307	33.816
C         -0.16810        1.58980        0.12700
C          0.07300        0.06780       -0.00210
C          0.82730       -0.28500       -1.28520
C          0.82370       -0.41170        1.22770
O          2.00660       -0.66620        1.24840
C          0.00010       -0.57260        2.53500
C          0.78740       -0.93550        3.76980
O         -1.19990       -0.42220        2.51710
H          0.78220        2.13350        0.15320
H         -0.73750        1.94670       -0.73610
H         -0.73550        1.83040        1.02910
H         -0.90960       -0.41660        0.01550
H          1.82090        0.17140       -1.28960
H          0.96170       -1.36600       -1.38450
H          0.27640        0.07340       -2.15970
H          1.34780       -1.85960        3.59920
H          1.53490       -0.16270        3.97730
H          0.11130       -1.04680        4.61770
