17
gdb 11421	3.77541	1.55797	1.22897	2.1648	65.64	-0.2667	0.0221	0.2888	1008.9037	0.142384	-401.021643	-401.013723	-401.012779	-401.054538	28.523
C         -0.29670        1.35930       -0.00060
C          0.06370       -0.11980       -0.15910
C          1.01590       -0.37390       -1.32170
O          1.37630       -1.73390       -1.44410
C          0.58170       -2.30670       -2.46920
C          0.09180       -1.12140       -3.27150
N         -0.49870       -1.16830       -4.38280
O          0.40940        0.00130       -2.56700
H          0.59770        1.96850        0.17140
H         -0.79250        1.73880       -0.89810
H         -0.96800        1.50810        0.84940
H          0.55300       -0.49880        0.74520
H         -0.83900       -0.72360       -0.31210
H          1.93520        0.21490       -1.21410
H          1.19330       -2.98020       -3.07400
H         -0.26770       -2.87490       -2.06490
H         -0.73970       -0.23190       -4.71000
