14
gdb 13589	3.94381	1.42355	1.24823	1.5595	61.35	-0.2537	-0.0993	0.1544	963.1281	0.10515	-419.678947	-419.671292	-419.670348	-419.711304	27.643
O         -0.02980        1.46660        0.11000
C         -0.09720        0.11450       -0.12000
C         -0.33060       -0.87310        0.95120
C         -1.47350       -0.63950       -0.04850
C         -2.59790        0.18270        0.37470
O         -2.52600        1.10180        1.18260
C         -3.96090       -0.08330       -0.27150
O         -4.16200       -0.94950       -1.08080
H         -0.70650        1.69080        0.77120
H          0.51990       -0.16700       -0.96650
H          0.15380       -1.84160        0.89910
H         -0.50420       -0.48880        1.95160
H         -1.68880       -1.40030       -0.78700
H         -4.74610        0.61120        0.09350
