18
gdb 16053	3.31197	1.682	1.406	3.3052	74.28	-0.2413	-0.0158	0.2255	953.5528	0.153589	-347.795107	-347.787319	-347.786375	-347.827068	29.337
C         -0.04210        1.55320        0.03950
C          0.08740        0.04520        0.07590
C          1.32110       -0.73250       -0.22100
C          2.59620       -0.06790        0.31570
C          1.98790       -0.03580        1.75300
C          0.72050       -0.71630        1.22990
C          0.03270       -1.82880        1.88630
O          0.28070       -2.23380        2.99930
H          0.85670        2.05990        0.39780
H         -0.22740        1.89360       -0.98490
H         -0.88060        1.88500        0.66020
H         -0.80400       -0.46720       -0.28560
H          1.30480       -1.57030       -0.90860
H          3.46460       -0.72550        0.25000
H          2.85710        0.89370       -0.13660
H          2.51980       -0.67940        2.45490
H          1.85340        0.94600        2.21500
H         -0.75770       -2.30900        1.26100
