20
gdb 15765	3.53751	1.08084	0.87101	0.1872	84.12	-0.2392	0.0619	0.3012	1381.2442	0.175225	-311.838715	-311.828991	-311.828047	-311.8746	34.22
C          0.18590        1.39550        0.07370
C          0.06320       -0.05450        0.01470
C         -0.03130       -1.25460       -0.02710
C         -0.16000       -2.71240       -0.10230
C         -1.64070       -3.13730       -0.18010
C          0.64020       -3.27710       -1.27180
C          2.11830       -3.51830       -1.13980
C          1.16570       -4.68860       -1.21210
H          0.90620        1.76540       -0.66470
H         -0.77280        1.88710       -0.12600
H          0.52680        1.72740        1.06100
H          0.26350       -3.13980        0.81890
H         -1.72040       -4.22840       -0.19870
H         -2.20190       -2.75820        0.67810
H         -2.10600       -2.74230       -1.08850
H          0.29380       -2.92980       -2.24170
H          2.75440       -3.31500       -1.99390
H          2.58020       -3.30010       -0.18240
H          0.99390       -5.25610       -0.30260
H          1.14740       -5.28770       -2.11580
