19
gdb 7514	4.69746	1.16221	1.09408	4.1128	75.93	-0.2817	0.0336	0.3152	1145.9408	0.164265	-327.941205	-327.932187	-327.931243	-327.974667	32.941
C         -0.02590        1.45230       -0.26530
C          0.07510       -0.02620        0.04140
C          1.39720       -0.75890       -0.00400
C          0.68550       -0.57480        1.31670
C          1.27890        0.34650        2.36470
C         -0.00940       -1.80550        1.90230
C          0.90780       -2.68510        2.63200
N          1.64420       -3.36680        3.20530
H          0.86040        2.00310        0.06020
H         -0.12860        1.61050       -1.34430
H         -0.89740        1.90510        0.22050
H         -0.77520       -0.59660       -0.32750
H          1.43540       -1.74940       -0.44560
H          2.29320       -0.16910       -0.17030
H          1.80950        1.18710        1.91310
H          0.50170        0.75510        3.02190
H          1.99450       -0.19550        2.99210
H         -0.81040       -1.50140        2.58830
H         -0.48180       -2.39190        1.10680
