17
gdb 13800	2.80905	1.79879	1.34961	2.6733	65.08	-0.24	0.0262	0.2662	961.0081	0.141032	-401.003497	-400.994714	-400.99377	-401.037245	31.433
C         -0.09420        0.81170       -0.38910
O         -0.50180       -0.27360        0.43740
C          0.47840       -0.65700        1.33890
C          0.36570       -2.04230        1.88850
C          1.49850       -1.70470        0.93600
C          1.54860       -2.18060       -0.49640
N          0.93420       -3.36910       -0.75320
O          2.11730       -1.54000       -1.36240
H          0.79370        0.55140       -0.97520
H         -0.93010        1.02700       -1.05830
H          0.11670        1.70730        0.21450
H          0.82510        0.13960        1.99940
H          0.59220       -2.21930        2.93390
H         -0.46430       -2.62160        1.49730
H          2.49170       -1.58290        1.35760
H          0.58210       -3.95430       -0.01760
H          0.99590       -3.74090       -1.68700
