18
gdb 7073	6.38615	0.85495	0.80059	2.2213	74.83	-0.2523	-0.0255	0.2268	1387.8874	0.150053	-347.786087	-347.77656	-347.775616	-347.821021	33.451
C         -0.06710        1.64750       -0.03200
C         -0.00860        0.11610        0.01420
C          0.74220       -0.38350        1.26480
C          2.20610       -0.00390        1.24800
O          2.78770        0.56210        2.13660
C         -1.42310       -0.51290       -0.03490
C         -2.15750       -0.20010       -1.25470
C         -2.74340        0.06080       -2.27150
H          0.93610        2.08480       -0.04280
H         -0.59830        1.98870       -0.92400
H         -0.58940        2.04320        0.84700
H          0.53380       -0.23860       -0.87270
H          0.29140       -0.00120        2.18640
H          0.70000       -1.48270        1.29680
H          2.74030       -0.30270        0.31410
H         -1.33750       -1.60270        0.06380
H         -1.99810       -0.17210        0.83700
H         -3.27190        0.28640       -3.16440
