12
gdb 3455	4.81015	2.96431	2.82556	3.0142	55.09	-0.2432	-0.0084	0.2349	543.4531	0.091811	-323.340989	-323.335884	-323.33494	-323.369664	20.004
O         -0.00050        0.01580       -0.15900
C         -0.01490        1.18910       -0.04130
C         -1.05350        2.39600        0.09200
N         -0.02410        2.93070        1.03400
C          0.99370        2.42390        0.06450
C          0.61840        3.06160       -1.26080
C         -0.73140        3.04310       -1.24270
H         -2.07900        2.29200        0.43760
H         -0.03800        3.95440        1.04110
H          2.03060        2.34790        0.38240
H          1.29140        3.32010       -2.06560
H         -1.43260        3.28290       -2.02900
