20
gdb 20015	4.06716	1.26543	1.12429	1.6167	75.35	-0.2614	0.0878	0.3491	1145.9081	0.176613	-348.972257	-348.963734	-348.96279	-349.00557	31.477
C         -0.51350        1.32150        0.22930
C          0.15260       -0.02420       -0.08070
C          0.93300       -0.56590        1.10140
C          0.25130       -1.37930        2.17760
C          1.25690       -2.03570        1.26500
C          0.82570       -3.06480        0.26590
C          0.06750       -4.26290        0.65700
O         -0.57030       -3.17930       -0.02310
H          0.22920        2.07810        0.50690
H         -1.06560        1.69970       -0.63680
H         -1.21690        1.22800        1.06320
H         -0.60620       -0.75190       -0.38350
H          0.82810        0.09410       -0.93870
H          1.71200        0.10730        1.45510
H          0.51740       -1.21730        3.21620
H         -0.78840       -1.63950        2.00700
H          2.23390       -2.25740        1.68900
H          1.45760       -3.14660       -0.62080
H          0.16210       -5.18170        0.08030
H         -0.22090       -4.38910        1.69930
