17
gdb 19696	5.20605	1.55466	1.40548	2.3109	67.06	-0.2358	0.0716	0.3074	904.1822	0.143387	-363.780337	-363.773483	-363.772539	-363.811388	26.563
O         -0.15860        1.43430        0.17950
C         -0.04650        0.04130       -0.08250
C         -1.42830       -0.56740        0.06420
C         -1.40580       -2.09570        0.12900
C         -1.33320       -2.09590        1.60970
C         -1.92940       -0.63440        1.53610
C         -3.28370       -1.34110        1.38220
N         -2.57170       -2.59020        0.94630
H          0.70950        1.83260        0.06770
H          0.33480       -0.14120       -1.10020
H          0.64890       -0.44480        0.62100
H         -2.11280       -0.09530       -0.65090
H         -0.99540       -2.80210       -0.58160
H         -0.76050       -2.66260        2.33170
H         -1.75770        0.20270        2.20850
H         -3.78320       -1.54940        2.33170
H         -4.00430       -0.93320        0.66290
