18
gdb 17663	3.04301	1.94261	1.53982	1.5191	66.91	-0.261	0.0707	0.3317	892.1353	0.153047	-384.901625	-384.893778	-384.892834	-384.933693	29.936
O         -0.34900        1.60810        0.23790
C          0.01650        0.25470        0.06300
C          0.99770       -0.11440       -1.09050
C          1.72800       -1.07790       -0.11890
C          1.03450       -0.36260        1.07130
C         -1.30090       -0.49390        0.04220
C         -2.08190       -0.70010       -1.17910
O         -1.33150       -1.77100       -0.59270
H          0.45270        2.11230        0.40960
H          0.57830       -0.54000       -2.00360
H          1.60820        0.75560       -1.35260
H          1.37720       -2.10410       -0.23670
H          2.81930       -1.06880       -0.13380
H          1.66680        0.41820        1.50900
H          0.62940       -0.97460        1.88180
H         -1.84020       -0.44720        0.98980
H         -3.16360       -0.80060       -1.11320
H         -1.70410       -0.33220       -2.13090
