17
gdb 5237	6.74338	1.14065	1.0054	1.9351	72.53	-0.1973	0.0423	0.2396	1164.9365	0.143297	-363.886498	-363.878591	-363.877647	-363.919459	28.522
C         -0.70020        1.41930       -0.52530
O         -0.66340        0.01850       -0.66430
C         -0.73510       -0.65910        0.58110
C         -0.78450       -2.12600        0.32490
C         -0.24870       -3.19840        1.00300
C         -0.67940       -4.38260        0.34080
C         -1.45810       -3.99570       -0.72510
N         -1.52790       -2.62630       -0.71450
H         -0.65950        1.84910       -1.52900
H         -1.62380        1.75730       -0.02860
H          0.15680        1.79370        0.05610
H          0.13410       -0.42180        1.21450
H         -1.63230       -0.31170        1.12660
H          0.37600       -3.13770        1.88150
H         -0.44020       -5.39890        0.61390
H         -1.95360       -4.57210       -1.48960
H         -1.94170       -2.04360       -1.42180
