11
gdb 1374	8.17957	1.59325	1.33351	5.1914	58.24	-0.2549	-0.0509	0.204	827.4768	0.077374	-339.418028	-339.410839	-339.409895	-339.449597	24.471
N          0.26020        1.28950        0.00520
C          0.02140        0.04640        0.00200
N         -1.25730       -0.50970        0.01090
C         -2.49150        0.13600        0.02660
O         -2.66180        1.32910        0.03560
C         -3.59340       -0.82220        0.03130
C         -4.52400       -1.58370        0.03570
H          1.26730        1.44430       -0.00320
H          0.77600       -0.75030       -0.00840
H         -1.30040       -1.51700        0.00560
H         -5.35840       -2.24250        0.03980
