17
gdb 2039	4.38768	2.46016	2.2053	1.1329	63.59	-0.2432	0.0776	0.3208	689.526	0.1478	-309.689595	-309.682688	-309.681743	-309.719705	27.39
C         -0.10290        1.57410        0.03080
C          0.05060        0.05890        0.01820
O         -1.21360       -0.56810       -0.15940
C          1.14700       -0.57590       -0.91870
C          1.74450       -1.29030        0.30000
C          2.17500       -0.27830        1.32110
C          0.71640       -0.62890        1.21730
H          0.84810        2.07950        0.22050
H         -0.47530        1.93210       -0.93800
H         -0.81830        1.87480        0.80250
H         -1.60350       -0.21680       -0.96750
H          0.67570       -1.25360       -1.63330
H          1.81740        0.10880       -1.45070
H          2.10780       -2.31020        0.31400
H          2.67580       -0.67830        2.19710
H          2.54550        0.69660        1.01210
H          0.15540       -1.04850        2.04330
