17
gdb 2802	4.27826	2.0651	1.56091	2.3085	60.46	-0.2436	0.0624	0.306	825.1635	0.147393	-346.833365	-346.825471	-346.824527	-346.865799	27.888
C          0.16910        1.47520        0.08450
C          0.03800       -0.04900        0.01570
C          0.51590       -0.59330       -1.32060
O          1.92900       -0.34730       -1.55530
C          2.23280       -1.75550       -1.55210
C          0.73570       -2.12090       -1.43700
O          0.31880       -2.83990       -0.30120
H          1.20630        1.77690       -0.08710
H         -0.45210        1.96360       -0.67500
H         -0.14030        1.85380        1.06310
H          0.61300       -0.51890        0.81960
H         -1.00570       -0.35470        0.15910
H         -0.08100       -0.16380       -2.13740
H          2.75270       -2.06730       -2.46620
H          2.82030       -2.05570       -0.67430
H          0.31750       -2.55020       -2.35570
H          0.46380       -3.77700       -0.46220
