16
gdb 16636	3.08815	2.31587	1.58131	2.7294	63.47	-0.2518	-0.031	0.2207	816.4847	0.131285	-383.755229	-383.748343	-383.747399	-383.786216	26.896
O         -0.04460        1.47550       -0.04490
C         -0.04120        0.07170       -0.00470
C         -1.40250       -0.58790       -0.02800
C         -2.15570       -0.55990       -1.33210
C         -1.33760       -1.77710       -0.98020
C          0.05540       -1.86210       -1.58730
C          0.66920       -0.51150       -1.23920
O          1.51270        0.10000       -1.84630
H          0.70520        1.72040       -0.60790
H          0.50940       -0.29150        0.88430
H         -1.96090       -0.65170        0.89770
H         -3.23460       -0.65060       -1.28180
H         -1.80630        0.10350       -2.11830
H         -1.85350       -2.69850       -0.73850
H          0.64830       -2.65600       -1.11340
H          0.08430       -2.03150       -2.66740
