12
gdb 12171	3.75602	1.56693	1.2186	3.0838	57.29	-0.2692	-0.0101	0.2591	930.6054	0.081525	-418.450271	-418.442609	-418.441665	-418.482628	26.897
O         -0.00940        1.25780        0.33920
C          0.10370       -0.09330       -0.00110
C         -1.26100       -0.79450       -0.21640
O         -0.86410       -1.11840       -1.60590
C          0.31170       -0.42420       -1.49120
O          1.11670       -0.19450       -2.33380
C         -1.57170       -1.96480        0.57070
C         -1.82760       -2.92610        1.24360
H          0.84300        1.68040        0.18400
H          0.77770       -0.65430        0.65850
H         -2.08330       -0.07510       -0.23530
H         -2.05930       -3.77850        1.83420
