20
gdb 16573	2.83066	2.49745	2.04602	1.5324	72.75	-0.2377	0.0781	0.3158	796.8186	0.181827	-349.032105	-349.025736	-349.024792	-349.062171	26.715
C         -0.03350        1.54410       -0.11540
O          1.32570        1.99160       -0.00880
C          2.18730        0.84310        0.06200
C          1.37870       -0.26670       -0.61870
C          0.01070        0.01340        0.02920
C          0.05500       -0.42870        1.50690
C          1.13500        0.33570        2.30130
C          2.46180        0.47480        1.52970
H         -0.63710        2.02990        0.66130
H         -0.43650        1.84110       -1.09390
H          3.11330        1.09770       -0.46220
H          1.34790       -0.11780       -1.70280
H          1.76030       -1.27030       -0.41400
H         -0.82150       -0.46610       -0.49360
H         -0.92270       -0.27670        1.97930
H          0.25130       -1.50810        1.54070
H          0.76540        1.34340        2.51990
H          1.30330       -0.14600        3.27020
H          3.03520       -0.46110        1.55450
H          3.08480        1.24310        1.99960
