16
gdb 3986	3.91014	1.05553	1.00018	3.0391	66.7	-0.2593	-0.0074	0.2519	1203.2381	0.128105	-417.012895	-417.003688	-417.002743	-417.048094	31.279
C          0.96980        0.68580        0.22160
C         -0.21560       -0.20430       -0.01340
C         -0.94630       -0.77420        1.17630
O         -0.07790       -1.54500        2.01570
C          0.18210       -2.80510        1.60200
N          1.00580       -3.51530        2.24050
N         -0.69390       -0.54560       -1.14930
O         -0.00330        0.03760       -2.21500
H          1.67730        0.61820       -0.60570
H          0.65030        1.73230        0.30080
H          1.46310        0.41120        1.15670
H         -1.31380        0.02880        1.82270
H         -1.79890       -1.36890        0.83280
H         -0.38740       -3.09960        0.71080
H          1.06880       -4.43820        1.81560
H         -0.45300       -0.33670       -2.98030
