13
gdb 2121	3.62739	3.16869	1.77308	4.5164	53.99	-0.2314	-0.088	0.1434	677.7872	0.101832	-344.494043	-344.487816	-344.486872	-344.524385	22.671
O          0.00250       -0.01150        0.14760
C         -0.04700        1.18680        0.09590
C         -1.27320        2.08470        0.03530
C         -0.77210        3.47070        0.49940
C          0.69440        3.55240        0.01970
C          1.20620        2.12170        0.08600
O          2.34120        1.73300        0.12910
H         -1.60190        2.12350       -1.01280
H         -2.10110        1.67610        0.61800
H         -1.38510        4.28830        0.11580
H         -0.80530        3.52670        1.59260
H          0.74020        3.87050       -1.03130
H          1.32780        4.23390        0.59090
