19
gdb 19691	4.45313	1.63114	1.52425	1.5983	74.12	-0.2337	0.0937	0.3274	925.2235	0.166828	-327.862112	-327.854993	-327.854049	-327.893518	27.919
C         -0.09230        1.51550       -0.01370
C          0.07460       -0.00430        0.10310
C          0.71290       -0.60310       -1.14100
C          0.90570       -2.12180       -1.34500
C         -0.52980       -2.70010       -1.22790
C         -0.84490       -1.85780       -2.46340
C          0.58150       -1.80890       -2.85890
N         -0.08320       -0.55290       -2.42140
H          0.87770        2.01260       -0.12520
H         -0.69690        1.76920       -0.88940
H         -0.58100        1.93100        0.87260
H          0.70340       -0.24970        0.96980
H         -0.90200       -0.46400        0.28620
H          1.65260       -0.07990       -1.35680
H          1.76040       -2.66020       -0.93880
H         -0.54590       -3.76250       -1.48520
H         -1.08680       -2.54080       -0.29970
H         -1.72990       -1.86340       -3.08560
H          1.10550       -1.93290       -3.79730
