12
gdb 4249	4.04296	2.04281	1.3571	5.8264	59.61	-0.2587	-0.0464	0.2123	816.994	0.087354	-410.91001	-410.903731	-410.902787	-410.940656	23.443
N         -0.08830        1.31230        0.31710
C          0.01250        0.08850       -0.00990
N          1.18690       -0.63210       -0.26960
C          1.16160       -1.95360       -0.61460
N          0.11390       -2.68140       -0.74220
C         -1.13200       -2.07220       -0.50740
O         -2.18280       -2.65460       -0.59670
N         -1.09980       -0.71480       -0.15340
H          0.81610        1.77250        0.38320
H          2.06650       -0.14660       -0.19530
H          2.14330       -2.39210       -0.78870
H         -1.99180       -0.27190        0.01650
