17
gdb 15879	2.53169	1.91198	1.21635	3.5004	65.98	-0.2354	-0.0336	0.2018	997.8971	0.140363	-400.971189	-400.962773	-400.961829	-401.00435	30.188
C         -0.25420        1.45890       -0.20540
N         -0.20470        0.03140        0.02880
C         -1.32810       -0.62130        0.72920
C         -0.30980       -1.59690        1.36640
O         -0.16410       -2.83270        0.71520
C          0.76090       -0.50050        1.00630
C          2.07910       -0.97920        0.44230
O          3.10050       -1.04540        1.07480
H          0.68800        1.79690       -0.64890
H         -1.05960        1.69050       -0.90990
H         -0.42760        2.04010        0.71900
H         -1.81190        0.02410        1.48060
H         -2.09820       -1.05780        0.08260
H         -0.41720       -1.81500        2.42820
H         -0.19180       -2.67390       -0.23540
H          0.95230        0.15810        1.86840
H          2.02680       -1.28590       -0.62730
