20
gdb 17075	5.47524	1.09479	0.98021	1.6712	75.37	-0.2614	0.0923	0.3537	1228.8068	0.177348	-348.972057	-348.963953	-348.963009	-349.005406	29.96
C          0.00500        1.49400        0.39630
C         -0.04480       -0.00690        0.23890
C         -1.23870       -0.71350       -0.23980
O         -0.11520       -0.51360       -1.09940
C          1.37640        2.08010        0.07620
C          1.88080        2.07640       -1.39640
C          2.48290        3.48620       -1.15260
C          1.55390        3.62470        0.08410
H         -0.75130        1.94380       -0.25940
H         -0.27350        1.74800        1.42910
H          0.64450       -0.56470        0.87710
H         -1.42050       -1.74440        0.06170
H         -2.13070       -0.14280       -0.49650
H          2.13200        1.62050        0.72590
H          2.55350        1.27280       -1.70370
H          1.04150        2.10620       -2.09740
H          3.53660        3.43390       -0.86270
H          2.38110        4.22790       -1.94820
H          0.61660        4.13020       -0.17270
H          1.96020        4.08880        0.98670
