19
gdb 15362	3.13881	1.38109	1.09064	3.417	72.62	-0.2458	0.0274	0.2732	1140.3822	0.164973	-365.078805	-365.06986	-365.068916	-365.113137	31.94
C          0.05000        1.33830        0.05930
C         -0.10840       -0.15730        0.35380
C         -1.50750       -0.66150        0.07210
C         -1.90600       -1.11650       -1.31290
C         -1.79720       -2.11940       -0.19310
N         -0.72760       -3.07510       -0.24040
C         -0.14430       -3.58260        0.88200
O         -0.36920       -3.21360        2.01350
H          1.06760        1.67730        0.27680
H         -0.16210        1.56020       -0.99220
H         -0.63640        1.93720        0.66790
H          0.60980       -0.72910       -0.24450
H          0.13520       -0.36360        1.40220
H         -2.28420       -0.15730        0.64220
H         -2.89160       -0.88200       -1.69860
H         -1.12300       -1.13550       -2.06560
H         -2.72320       -2.50880        0.22290
H         -0.54040       -3.54120       -1.11490
H          0.58500       -4.38210        0.63680
