20
gdb 20039	5.02367	1.29328	1.14818	0.3169	82.74	-0.2128	0.0343	0.2471	1110.787	0.179049	-311.87602	-311.8684	-311.867456	-311.908195	29.429
C         -0.13650        1.44520       -0.14880
C          1.27650        0.98050        0.05090
C          0.14300       -0.03150        0.06850
C         -0.26550       -0.72480        1.30540
C         -0.64660       -2.00400        1.39360
C         -1.05580       -2.40130        2.79010
C         -0.53220       -1.22190        3.64740
C         -0.36850       -0.04150        2.65870
H         -0.60820        1.99390        0.65850
H         -0.44760        1.75790       -1.13940
H          1.94440        0.96490       -0.80320
H          1.76350        1.21700        0.99010
H          0.07180       -0.64990       -0.82170
H         -0.70340       -2.68520        0.55050
H         -2.14870       -2.50520        2.86390
H         -0.63790       -3.36450        3.10550
H         -1.18560       -0.98120        4.49000
H          0.44690       -1.48320        4.06180
H          0.49940        0.58310        2.89930
H         -1.24140        0.62680        2.67890
