12
gdb 21581	3.54378	2.36919	1.41999	5.6659	61.68	-0.2315	-0.0584	0.1731	789.2989	0.084482	-414.67437	-414.667554	-414.66661	-414.705481	24.967
N          0.03730        1.32960       -0.16090
C         -0.05770       -0.00890       -0.03640
C         -1.18480       -0.77140        0.05270
C         -1.02400       -2.17940        0.15930
N          0.09050       -2.83570        0.18470
O          1.25180       -2.04280        0.09830
C          1.25490       -0.69190       -0.00670
O          2.30380       -0.09270       -0.06900
H          0.96550        1.72280       -0.15330
H         -0.76620        1.92940       -0.11380
H         -2.17840       -0.33860        0.04150
H         -1.89540       -2.82480        0.22930
