18
gdb 16536	2.82911	2.20833	1.54423	2.8036	71.4	-0.2325	-0.017	0.2155	883.8442	0.153832	-347.80129	-347.793685	-347.79274	-347.833491	28.595
C          0.22180        1.65560        0.07930
C          0.12790        0.13890       -0.00510
C          0.70440       -0.69580       -1.19360
C          2.10800       -0.28230       -1.71960
C          2.78970       -1.29870       -0.75580
C          1.39420       -1.68490       -0.17740
C          0.96350       -0.73520        0.94960
O          1.22540       -0.66210        2.11680
H          1.24770        2.00730       -0.06470
H         -0.41020        2.13710       -0.67370
H         -0.10530        1.99630        1.06630
H         -0.91790       -0.17260        0.13730
H         -0.01910       -1.02550       -1.93850
H          2.26020       -0.51550       -2.77550
H          2.37620        0.76640       -1.56910
H          3.26710       -2.13030       -1.27810
H          3.50170       -0.89660       -0.03090
H          1.15690       -2.74310       -0.06120
