13
gdb 4674	7.09131	1.30163	1.09977	2.5436	64.35	-0.2131	-0.0345	0.1786	983.6472	0.096143	-398.648191	-398.641255	-398.640311	-398.67927	25.675
O          0.07370        1.38740       -0.10430
C          0.06550        0.03060       -0.04510
C          0.02910       -0.79070       -1.13460
N          0.03270       -2.10530       -0.65780
C          0.00210       -3.24690       -1.44610
O          0.00530       -4.37020       -1.01290
C          0.07190       -2.09220        0.72600
C          0.09260       -0.79140        1.13570
H          0.10100        1.73730        0.79090
H          0.00120       -0.57410       -2.18850
H         -0.02700       -2.99750       -2.52190
H          0.08030       -3.02330        1.26610
H          0.12380       -0.44570        2.15880
