15
gdb 21956	7.24909	1.06214	0.93712	1.4322	62.65	-0.2612	-0.0064	0.2548	1166.4487	0.119062	-399.788574	-399.780947	-399.780003	-399.821672	26.82
O         -0.09330        1.46460       -0.03690
C         -0.01860        0.06870       -0.28760
C         -1.24500       -0.55640        0.36880
C         -1.33710       -2.04320        0.20660
N         -0.41880       -2.71190       -0.45250
O         -0.80910       -4.04830       -0.41060
C         -1.95590       -4.13900        0.27660
C         -2.35510       -2.91580        0.70010
H          0.67200        1.88140       -0.44270
H         -0.01870       -0.15280       -1.36410
H          0.89530       -0.37300        0.13400
H         -1.24130       -0.30560        1.43660
H         -2.14580       -0.08780       -0.04610
H         -2.36420       -5.13250        0.38000
H         -3.23150       -2.66190        1.27280
