15
gdb 5075	3.25844	1.99711	1.24791	2.0232	63.51	-0.1695	0.0469	0.2164	916.6712	0.117221	-399.828273	-399.81922	-399.818276	-399.86267	31.31
C          0.09890        1.50460        0.05860
C          0.07160        0.00790        0.01820
C          0.02640       -0.81510       -1.08780
O         -0.00490       -0.55950       -2.42290
N          0.00260       -2.11280       -0.69220
C          0.03670       -2.17550        0.70040
C          0.07960       -0.88190        1.14480
O          0.11270       -0.51570        2.46180
H          1.05400        1.90750        0.42300
H         -0.06330        1.94000       -0.93450
H         -0.69310        1.91550        0.69930
H          0.09230        0.38860       -2.55210
H         -0.01880       -2.89450       -1.32140
H          0.02390       -3.11170        1.22880
H          0.17490        0.44240        2.50860
