13
gdb 21078	3.813	1.9824	1.31524	2.1342	67.85	-0.265	-0.0428	0.2222	860.3195	0.097594	-357.680866	-357.673781	-357.672837	-357.713091	24.619
C          0.01150        1.40630        0.00450
N         -0.00370       -0.04480        0.02910
N          0.07420       -0.73720       -1.11020
C          0.09300       -2.02230       -0.74820
C          0.03130       -2.17010        0.64420
C         -0.02860       -0.86810        1.12230
C         -0.11000       -0.37400        2.44450
N         -0.17820        0.04600        3.52210
H          1.03210        1.77910       -0.12270
H         -0.60150        1.74500       -0.83110
H         -0.39610        1.78450        0.94260
H          0.14460       -2.79060       -1.50470
H          0.02110       -3.07250        1.23220
