11
gdb 21505	5.32554	1.61254	1.23776	2.3574	53.03	-0.2801	-0.0717	0.2084	867.6568	0.072788	-430.710071	-430.703379	-430.702435	-430.74142	23.615
N         -0.05260        1.32170        0.00700
C          0.05260       -0.02880        0.00120
O          1.09880       -0.64850       -0.00970
C         -1.25240       -0.75640        0.00890
N         -2.42420       -0.17850        0.02080
O         -3.33770       -1.18470        0.02440
N         -2.72520       -2.41370        0.01430
C         -1.44690       -2.16540        0.00480
H          0.79050        1.87110        0.00280
H         -0.95030        1.77650        0.01670
H         -0.70840       -2.95030       -0.00450
