18
gdb 7479	4.05739	1.24996	1.15743	1.3896	67.93	-0.2493	-0.0283	0.221	1074.245	0.151641	-384.926845	-384.918197	-384.917253	-384.960886	30.418
C         -0.21870        1.57720        0.09650
C          0.03710        0.07690       -0.00240
C         -1.23370       -0.70150       -0.38850
C         -1.79880       -0.29690       -1.73220
O         -2.94430        0.01560       -1.93220
C          1.30100       -0.36870       -0.79080
O          1.78730       -1.12930        0.33020
C          0.77610       -0.57630        1.19490
H          0.68680        2.11170        0.39960
H         -0.54840        1.99390       -0.86180
H         -1.00150        1.79300        0.83210
H         -0.98670       -1.77160       -0.44460
H         -2.01720       -0.57470        0.36550
H         -1.06090       -0.31090       -2.56880
H          1.14840       -0.99720       -1.67630
H          1.97780        0.45600       -1.05390
H          1.19600        0.14490        1.90990
H          0.23390       -1.35320        1.74700
