19
gdb 2342	5.96095	1.31586	1.18791	1.0291	68.88	-0.248	0.0899	0.3379	1062.8097	0.170466	-310.895432	-310.886982	-310.886038	-310.92845	29.904
C         -0.23390        1.34820       -0.04450
O         -0.21690       -0.05180       -0.16590
C          0.82660       -0.51500       -1.00190
C          0.79370       -2.01930       -1.01730
C         -0.13360       -2.76000       -1.95070
C          1.35870       -2.83980       -2.15760
C          2.02010       -2.23580       -3.37900
H          0.70400        1.73580        0.38640
H         -0.38980        1.84430       -1.01660
H         -1.06100        1.61100        0.61990
H          0.70670       -0.10430       -2.01780
H          1.79890       -0.15220       -0.62320
H          0.91420       -2.44860       -0.02640
H         -0.66610       -3.62830       -1.57860
H         -0.70220       -2.16090       -2.65600
H          1.81870       -3.77270       -1.84040
H          1.50770       -1.33240       -3.72130
H          3.06580       -1.97240       -3.18320
H          2.00950       -2.94870       -4.21100
