19
gdb 8514	4.31408	1.81169	1.58994	1.7431	75.33	-0.228	0.0853	0.3134	893.9474	0.165381	-327.87418	-327.866706	-327.865762	-327.905199	29.722
C         -0.10540        1.49480       -0.00940
C         -0.00340        0.00360       -0.06230
C          0.87400       -0.85460       -0.97510
C          0.06730       -2.07440       -0.44330
C         -0.08300       -3.33780       -1.24690
C          0.45960       -2.06040        1.04630
N         -0.25160       -0.75340        1.22240
C         -1.05440       -1.04170       -0.00410
H          0.83090        1.93900        0.34730
H         -0.31960        1.90960       -1.00040
H         -0.90200        1.79920        0.67490
H          0.65150       -0.64700       -2.02630
H          1.96030       -0.85970       -0.82180
H          0.88770       -3.83000       -1.38180
H         -0.75070       -4.05020       -0.74980
H         -0.49100       -3.13410       -2.24290
H         -0.06190       -2.81880        1.63840
H          1.52630       -2.05780        1.30470
H         -2.13660       -1.02110       -0.04360
