19
gdb 18240	4.06845	1.50879	1.27272	1.4703	77.43	-0.2238	0.0227	0.2464	1029.2206	0.167005	-327.915679	-327.908082	-327.907138	-327.947709	29.232
C          0.13440        1.53840       -0.15050
C         -0.05970        0.02930        0.08170
C          0.66570       -0.48730        1.28840
C          0.13430       -1.03500        2.38760
C          1.17300       -1.44980        3.40980
C          2.48750       -1.12400        2.70840
N          2.70470       -1.89280        1.46300
C          2.16200       -0.50220        1.39800
H          1.19000        1.79090       -0.29470
H         -0.40840        1.86750       -1.04190
H         -0.23200        2.11530        0.70430
H         -1.12880       -0.18790        0.18320
H          0.28630       -0.51370       -0.80870
H         -0.92620       -1.21190        2.53550
H          1.07080       -0.88890        4.34870
H          1.10200       -2.51440        3.66400
H          3.35300       -0.82310        3.28890
H          3.70000       -1.85870        1.24500
H          2.77340        0.26940        0.94170
