19
gdb 3505	5.84921	1.79726	1.75075	0.1306	71.76	-0.2881	0.0958	0.3839	827.7818	0.173231	-273.735646	-273.728917	-273.727973	-273.766326	26.266
C         -0.05470        1.56480       -0.00240
C         -0.19230        0.03850       -0.07150
C          0.62180       -0.56340       -1.20980
C          2.17930       -0.72340       -1.13770
C          1.96900       -1.93900       -0.18750
C          0.90770       -2.09750       -1.31670
C          2.04300       -1.73090       -2.31580
H          0.98230        1.86010        0.19040
H         -0.36070        2.03350       -0.94450
H         -0.67510        1.98520        0.79520
H          0.08620       -0.39370        0.89510
H         -1.24780       -0.22330       -0.22550
H          0.28620       -0.12500       -2.15940
H          2.92250        0.07000       -1.03790
H          2.77130       -2.68220       -0.17520
H          1.61350       -1.74150        0.82470
H          0.17180       -2.89720       -1.42240
H          1.73530       -1.32100       -3.28220
H          2.84890       -2.46150       -2.42710
