17
gdb 6260	4.07044	1.12877	1.0005	3.2412	72.78	-0.2486	-0.0393	0.2093	1200.0363	0.141284	-360.067912	-360.058662	-360.057718	-360.102112	32.677
C         -0.08250        1.53440        0.01920
C          0.02060        0.00900        0.03480
C          0.76490       -0.51700        1.26960
N         -1.32530       -0.55690       -0.06750
C         -1.55870       -1.81280       -0.53830
N         -0.63510       -2.57320       -1.00030
C         -2.96150       -2.20560       -0.49170
N         -4.06320       -2.55600       -0.46420
H          0.91450        1.98150        0.05510
H         -0.58720        1.88830       -0.88420
H         -0.63850        1.90110        0.89100
H          0.55370       -0.33060       -0.85870
H          0.81930       -1.60750        1.24410
H          1.78550       -0.12240        1.29500
H          0.25800       -0.21030        2.19130
H         -2.07760       -0.08720        0.40970
H         -1.02000       -3.44810       -1.34530
