16
gdb 19710	5.52458	1.77538	1.62258	1.7167	63.61	-0.2342	0.0778	0.312	801.6397	0.13236	-383.686082	-383.680011	-383.679067	-383.715942	24.737
O         -0.03290        1.44870       -0.07140
C          0.02280        0.04320        0.00330
C          0.01590       -0.63390        1.39550
C         -1.48500       -0.20190        1.56980
C         -2.18030       -1.34870        2.28880
O         -1.55990       -2.48200        1.65610
C         -0.67160       -1.86780        0.74280
C         -1.34920       -0.64020        0.06570
H          0.85570        1.79150        0.06540
H          0.73450       -0.36660       -0.72690
H          0.79450       -0.63750        2.15990
H         -1.73330        0.82650        1.81700
H         -1.98670       -1.36840        3.36870
H         -3.26480       -1.37350        2.12420
H         -0.11960       -2.61720        0.17740
H         -2.13250       -0.64650       -0.69230
