19
gdb 8283	5.88059	0.96531	0.91322	3.0036	73.29	-0.2258	-0.0234	0.2024	1296.8608	0.163856	-365.045576	-365.036883	-365.035939	-365.079594	30.879
C         -0.06910        1.61380       -0.08780
C         -0.07750        0.09010       -0.07610
C          1.10410       -0.57280       -0.83660
N          1.80270       -0.74210        0.45280
C          2.59300       -1.92520        0.68410
C          3.42520       -1.79600        1.95050
O          3.70580       -2.71000        2.68050
C          0.53740       -0.55610        1.19460
H          0.91910        1.99860        0.18450
H         -0.32170        2.00180       -1.08050
H         -0.79740        2.01770        0.62380
H         -1.06370       -0.29140       -0.34800
H          0.81690       -1.52670       -1.30740
H          1.64300        0.03670       -1.57170
H          2.01240       -2.86440        0.73280
H          3.31050       -2.02860       -0.14440
H          3.77430       -0.75590        2.14210
H          0.61660        0.06580        2.09370
H          0.05090       -1.50780        1.46330
