20
gdb 11374	5.35336	1.12393	0.9686	1.4814	77.52	-0.2225	0.0369	0.2594	1235.5521	0.176944	-349.019453	-349.010747	-349.009803	-349.052781	32.156
C         -0.01820        1.54270        0.04160
C          0.09520        0.01980        0.01050
C          0.89090       -0.54940       -1.19580
C          1.53760       -1.79160       -0.63390
C          1.48120       -1.82570        0.69780
C          2.05100       -2.87010        1.60000
O          2.70500       -3.86830        0.83710
C          0.78440       -0.60220        1.25450
H          0.97240        2.00890        0.09970
H         -0.51200        1.92350       -0.85910
H         -0.59740        1.88440        0.90650
H         -0.91590       -0.40300       -0.04230
H          0.24680       -0.74850       -2.06060
H          1.65420        0.16440       -1.54320
H          2.02520       -2.54180       -1.24360
H          2.74550       -2.39090        2.31460
H          1.23830       -3.30170        2.21240
H          3.03790       -4.53620        1.44270
H          1.51790        0.09190        1.69450
H          0.07000       -0.83600        2.05410
