9
gdb 3918	8.84153	2.16187	1.73712	2.4151	46.88	-0.2942	-0.1053	0.1889	633.355	0.0557	-375.370023	-375.364682	-375.363738	-375.399489	17.899
O         -0.01170       -0.02130       -0.00020
C          0.00870        1.18060        0.00830
C          1.25630        1.98570        0.00150
N          1.32800        3.28710        0.00990
C          2.68220        3.48780       -0.00210
N          3.40070        2.39350       -0.01740
O          2.45010        1.38200       -0.01480
H         -0.89900        1.81290        0.02190
H          3.14590        4.46300        0.00010
