14
gdb 17153	4.29262	1.97276	1.61127	2.3837	66.49	-0.263	0.0092	0.2722	785.4155	0.108671	-341.49653	-341.490477	-341.489533	-341.526671	23.532
N          0.02340       -1.14690       -0.01140
C         -0.00880        0.00900        0.01670
C         -0.04910        1.45240        0.05140
C         -0.73080        2.40750        1.02970
N         -0.08670        3.40240        0.07380
C          1.14240        2.46550       -0.07370
C          1.07130        2.53470       -1.60040
C         -0.37730        2.44810       -1.11580
H         -1.82380        2.43970        1.02850
H         -0.33650        2.45670        2.04840
H          1.99130        2.54830        0.60580
H          1.36570        3.48740       -2.04560
H          1.46190        1.68000       -2.15580
H         -1.31820        2.51060       -1.66350
