14
gdb 20444	6.35997	1.40409	1.24388	5.9345	63.94	-0.2442	-0.0007	0.2435	935.604	0.110187	-374.868187	-374.861658	-374.860714	-374.899663	23.795
C          0.05980        1.56960        0.00690
N          1.24470        0.71030       -0.06560
C         -0.07840        0.07970        0.02910
C         -0.34390       -0.66110        1.27570
C          0.41040       -0.89960        2.40260
N         -0.32470       -1.63700        3.28140
N         -1.49570       -1.87520        2.76870
N         -1.51630       -1.28630        1.55330
H         -0.04480        2.12230        0.93550
H         -0.27040        2.09520       -0.88540
H          1.59330        0.65520       -1.01810
H         -0.49180       -0.37010       -0.87240
H          1.42050       -0.58980        2.61030
H         -2.34980       -1.35060        0.99080
