15
gdb 4475	3.63877	1.70618	1.1701	1.7887	64.74	-0.1637	0.0669	0.2306	972.2789	0.117515	-399.830898	-399.822059	-399.821115	-399.864518	31.124
C         -0.06900        1.52180        0.09900
C          0.01640        0.04040       -0.01760
C          0.08550       -0.77580       -1.11700
O          0.09850       -0.30880       -2.40480
C          0.15390       -2.14290       -0.69270
C          0.12390       -2.10440        0.68230
O          0.15700       -3.06970        1.63760
N          0.04570       -0.81230        1.09140
H          0.79800        1.96000        0.61240
H         -0.10930        1.95390       -0.90360
H         -0.96730        1.85260        0.63800
H          0.03640       -1.06010       -3.00020
H          0.22190       -3.02260       -1.31490
H          0.21660       -3.92420        1.20070
H          0.00420       -0.52750        2.05390
