14
gdb 20460	4.93208	2.00595	1.45963	2.8791	62.51	-0.2335	-0.0105	0.223	802.7507	0.110694	-378.696815	-378.690636	-378.689692	-378.728017	22.759
C         -0.03490        1.50110        0.17180
N          1.30520        1.95560       -0.29420
C          2.20710        0.78310       -0.53760
C          1.29360       -0.39720       -0.38630
C          0.06810        0.02090       -0.00010
O         -0.76970       -0.99130        0.20480
N         -0.06250       -2.18190       -0.06980
C          1.15430       -1.80700       -0.40720
H         -0.20610        1.77510        1.22230
H         -0.84060        1.95760       -0.41450
H          1.19310        2.46520       -1.15980
H          2.67340        0.86100       -1.52630
H          3.02220        0.77100        0.19860
H          1.86990       -2.57770       -0.65810
