22
gdb 16417	3.22522	1.98849	1.60572	0.0552	80.71	-0.2738	0.0824	0.3562	924.1627	0.203822	-313.078375	-313.071178	-313.070234	-313.109232	29.903
C         -0.72420        1.30150        0.17060
C          0.09840        0.02780       -0.04930
C          0.96680        0.14370       -1.32840
C          2.21890       -0.76530       -1.31010
C          2.73310       -0.96030        0.12590
C          1.64960       -1.69780        0.95850
C          0.99360       -0.30630        1.16320
C          2.42340        0.29350        0.99780
H         -0.07190        2.15950        0.37270
H         -1.32530        1.54410       -0.71270
H         -1.40610        1.19380        1.02100
H         -0.60400       -0.80910       -0.17030
H          0.36020       -0.04540       -2.22020
H          1.29850        1.18520       -1.41310
H          1.99510       -1.74930       -1.74150
H          2.99680       -0.32060       -1.94180
H          3.74970       -1.36150        0.13970
H          1.05920       -2.47240        0.45670
H          2.05380       -2.10120        1.89160
H          0.46650       -0.12370        2.10430
H          2.97430        0.26660        1.94180
H          2.53460        1.28660        0.55310
