17
gdb 15373	3.14935	1.44155	1.11558	2.8745	65.42	-0.2475	0.0233	0.2707	1066.5139	0.141659	-400.9981	-400.989403	-400.988459	-401.032061	30.621
O          0.02880        1.14420       -0.02570
C         -0.07900       -0.22240        0.35850
C         -1.47310       -0.68280        0.02780
C         -1.82770       -1.11020       -1.37420
C         -1.78500       -2.12990       -0.26580
N         -0.74310       -3.11770       -0.28880
C         -0.12740       -3.58060        0.83560
O         -0.27800       -3.13290        1.95120
H          0.86170        1.48050        0.31780
H          0.65530       -0.84390       -0.17520
H          0.09860       -0.35530        1.43430
H         -2.24560       -0.15710        0.58060
H         -2.79170       -0.83790       -1.78770
H         -1.01750       -1.13390       -2.09630
H         -2.73550       -2.49460        0.11640
H         -0.60460       -3.63810       -1.14170
H          0.55790       -4.42250        0.60690
