21
gdb 6555	3.05627	1.5854	1.42621	1.1225	74.98	-0.2198	0.0675	0.2873	1017.1286	0.186	-366.227436	-366.217789	-366.216844	-366.26118	36.196
C          1.25020        0.99770       -0.92340
N          0.55810       -0.10220       -0.26560
C          1.32020       -1.25280        0.18740
C          0.65610       -0.34590        1.17330
C          1.38640        0.53480        2.20210
C          0.99620        0.03750        3.60510
C          2.91270        0.57080        2.08950
O          0.96740        1.90170        2.05010
H          2.31480        1.09270       -0.67010
H          1.17680        0.84410       -2.00530
H          0.76060        1.94000       -0.66940
H          0.90350       -2.23340       -0.03370
H          2.40590       -1.20080        0.11650
H         -0.30120       -0.69090        1.56920
H          1.30650       -1.00130        3.75880
H          1.46710        0.66220        4.36880
H         -0.08960        0.08520        3.74580
H          3.24530        0.95530        1.12470
H          3.30940        1.23330        2.86430
H          3.33720       -0.42570        2.23480
H          0.00480        1.91980        2.09350
