18
gdb 11862	4.98104	1.26018	1.17325	2.4312	68.4	-0.2325	0.069	0.3015	1069.5403	0.15334	-384.902174	-384.894301	-384.893356	-384.934852	29.757
O          0.05520        1.16560        0.60760
C          0.03010       -0.17480        0.16220
C         -1.35640       -0.54500       -0.33450
C         -1.71410       -2.04470       -0.41340
C         -2.67720       -1.71950        0.72280
C         -4.07660       -2.17280        0.96450
C         -2.97750       -2.46070        1.98220
O         -2.32910       -0.32960        0.73020
H         -0.68080        1.24750        1.22720
H          0.76140       -0.26290       -0.64950
H          0.32650       -0.87350        0.96230
H         -1.61960        0.05500       -1.21290
H         -2.18340       -2.36420       -1.34540
H         -0.89910       -2.72800       -0.16140
H         -4.80380       -1.41000        1.22120
H         -4.46690       -2.99400        0.37180
H         -2.61570       -3.47880        2.08650
H         -2.98980       -1.88570        2.90200
