17
gdb 6080	4.63747	0.81849	0.81391	3.9521	75.95	-0.2487	-0.015	0.2337	1483.0026	0.139939	-363.877767	-363.867765	-363.866821	-363.915418	33.811
C         -0.05210        1.44070       -0.13530
C          0.00450       -0.07690        0.13490
C          0.84840       -0.39610        1.38610
C         -1.34220       -0.63000        0.26530
C         -2.45810       -1.06910        0.39730
C         -3.81450       -1.55100        0.61140
N         -4.19450       -2.53220       -0.26050
O         -4.53810       -1.12610        1.49170
H          0.96020        1.83420       -0.26950
H         -0.63160        1.66060       -1.03560
H         -0.51800        1.96350        0.70500
H          0.48520       -0.55690       -0.72880
H          0.41050        0.06930        2.27390
H          0.90520       -1.47360        1.56030
H          1.86480       -0.01100        1.25910
H         -3.60520       -2.81310       -1.02420
H         -5.14030       -2.87360       -0.20920
