14
gdb 667	6.04615	3.50039	3.42472	1.3959	52.57	-0.2452	0.0769	0.3221	485.374	0.120797	-270.394458	-270.388966	-270.388022	-270.422979	21.07
O         -0.01640        1.43100        0.29180
C         -0.07700        0.04250        0.11860
C         -0.44710       -0.82700        1.27020
C         -1.52080       -0.15230        2.13380
C         -2.44920       -0.04200        0.88360
C         -1.36920       -0.71710        0.02820
H         -0.30990        1.84480       -0.52670
H          0.71990       -0.36620       -0.50450
H          0.18800       -1.64560        1.58880
H         -1.93010       -0.82200        2.89270
H         -1.22250        0.78640        2.60620
H         -3.35050       -0.65030        0.98090
H         -2.73700        0.96800        0.57710
H         -1.55210       -1.43620       -0.76260
