11
gdb 3154	4.65999	2.74027	1.97677	3.9226	47.31	-0.2787	-0.0192	0.2595	620.8066	0.078248	-380.379743	-380.373998	-380.373053	-380.409415	20.488
O         -0.01880        0.05990        0.25410
C          0.02480        1.22440        0.03750
O         -0.99280        2.06130       -0.37380
C         -0.11640        3.23290       -0.44890
C          1.02760        2.37010        0.07610
C          2.13480        2.61900        1.00080
O          2.34930        2.32970       -0.38660
H         -0.00340        3.57610       -1.47910
H         -0.47720        4.03350        0.19930
H          2.35110        3.64160        1.30440
H          2.43550        1.83490        1.69230
