18
gdb 9705	3.5502	1.58178	1.52593	0.7957	79.03	-0.2434	0.0177	0.2611	943.1804	0.153202	-310.650655	-310.6426	-310.641656	-310.682704	31.078
C          0.16160        1.38630        0.01220
C         -0.11740       -0.13790       -0.00050
C          0.58850       -0.84620       -1.20880
C          1.91000       -1.42700       -0.64810
C          1.65700       -1.47850        0.83880
C          0.56490       -0.80650        1.18970
C         -1.56350       -0.36440       -0.00380
C         -2.75350       -0.53910       -0.00510
H          1.23920        1.57140       -0.03400
H         -0.31750        1.87210       -0.84310
H         -0.22690        1.84600        0.92550
H         -0.04950       -1.65930       -1.56210
H          0.73880       -0.15870       -2.04480
H          2.14020       -2.41000       -1.07400
H          2.77520       -0.78830       -0.87390
H          2.32380       -1.98390        1.52910
H          0.18790       -0.67470        2.19730
H         -3.80280       -0.70120       -0.00600
