14
gdb 21689	3.45247	1.76756	1.17967	4.403	59.54	-0.2321	0.0093	0.2414	946.6396	0.107732	-415.841598	-415.833922	-415.832978	-415.874115	27.477
N          0.03250        1.39020        0.15190
C          0.03900        0.00640        0.03470
N         -1.08040       -0.68340        0.01150
O         -0.68570       -2.02520       -0.01660
C          0.65290       -2.08150       -0.02610
C          1.19360       -0.83880        0.00630
C          2.63240       -0.44580        0.04210
O          3.41380       -1.62580       -0.02920
H          0.71390        1.85350       -0.43420
H         -0.89110        1.77900        0.00730
H          1.09530       -3.06400       -0.05080
H          2.86170        0.23320       -0.79910
H          2.83930        0.12090        0.96540
H          4.33930       -1.38000        0.05560
