18
gdb 18295	3.08873	2.09868	1.8624	1.7755	66.94	-0.2471	0.0807	0.3278	822.4379	0.155611	-384.923618	-384.916452	-384.915508	-384.954788	27.607
C         -0.21320        1.53230        0.10620
C         -0.00450        0.03840       -0.00850
C          0.70320       -0.60710       -1.18670
C          1.38020        0.18780       -2.28930
O          2.36330        1.09790       -1.79700
C          3.16740        0.49900       -0.81980
O          2.45850        0.25510        0.37010
C          1.35540       -0.59170        0.17940
H          0.65010        2.08480       -0.26620
H         -1.09350        1.84580       -0.46540
H         -0.37580        1.81840        1.15070
H         -0.82310       -0.55750        0.38890
H          0.30700       -1.55950       -1.52640
H          1.85890       -0.51630       -2.98910
H          0.66810        0.79420       -2.85750
H          3.59840       -0.44170       -1.20840
H          3.95960        1.20760       -0.57150
H          1.43710       -1.51480        0.74860
