12
gdb 21387	5.69825	2.16915	1.57109	2.3663	60.32	-0.2308	0.0013	0.2321	723.2513	0.088595	-373.703881	-373.698171	-373.697227	-373.733447	21.785
N          0.00630        1.32810        0.00880
N          1.27620        1.85790        0.00090
C          2.10670        0.82750       -0.01360
C          1.40280       -0.40920       -0.01340
C          0.06360       -0.02190        0.00190
N         -0.70550       -1.13280        0.00300
N          0.08560       -2.25870       -0.01140
C          1.33790       -1.83060       -0.02090
H         -0.78000        1.95170        0.02290
H          3.17030        1.01330       -0.02300
H         -1.70330       -1.24050        0.01220
H          2.13820       -2.55540       -0.03300
