16
gdb 6672	7.87176	0.75221	0.69573	4.2802	63.28	-0.2525	-0.0316	0.221	1541.3833	0.125169	-420.884567	-420.874875	-420.873931	-420.921261	31.069
C         -0.08510        1.48930       -0.12810
C          0.07610       -0.01760       -0.03340
O          1.14690       -0.56750       -0.06110
C         -1.23310       -0.79630        0.09510
O         -0.98120       -2.17010        0.07340
C         -2.13500       -2.95910        0.21160
C         -1.71200       -4.41900        0.17880
O         -2.48720       -5.33370        0.25870
H          0.89090        1.96660       -0.03620
H         -0.52310        1.75540       -1.09740
H         -0.76140        1.86910        0.64520
H         -1.72720       -0.48660        1.03450
H         -1.91160       -0.49040       -0.72200
H         -2.65990       -2.76410        1.16240
H         -2.86150       -2.78130       -0.59940
H         -0.61470       -4.56190        0.07490
