18
gdb 13264	6.21036	0.86188	0.79444	1.9817	76.23	-0.2431	0.0533	0.2963	1444.7582	0.152545	-347.758846	-347.749695	-347.748751	-347.795425	30.597
C          0.02140        1.44220       -0.17770
C          0.03670       -0.01160       -0.09520
C          0.06300       -1.21360       -0.02720
C          0.05180       -2.67080        0.05500
C         -1.36460       -3.24500        0.18170
C         -2.24690       -3.16850       -1.08340
O         -2.25740       -4.60610       -1.21850
C         -1.49470       -4.77270       -0.00740
H          0.63590        1.89260        0.60970
H          0.40980        1.79140       -1.14080
H         -0.99500        1.83670       -0.06910
H          0.53150       -3.09780       -0.83660
H          0.65400       -3.00240        0.91180
H         -1.84180       -2.85720        1.08390
H         -3.25590       -2.76420       -0.93580
H         -1.78930       -2.67340       -1.94900
H         -0.55360       -5.31180       -0.18240
H         -2.06440       -5.30000        0.76840
