15
gdb 19329	4.77923	1.69062	1.49663	4.4489	69.76	-0.2345	0.015	0.2495	849.7115	0.119886	-325.470754	-325.464302	-325.463358	-325.501143	25.646
N          0.09390       -1.13000       -0.03280
C          0.04330        0.02760       -0.02150
C         -0.02880        1.44630        0.01300
C          0.26330        2.30550       -1.20280
C          1.13390        2.45810        0.00130
C          0.48460        3.21510        1.18890
C         -0.92540        3.67610        0.93100
C         -0.66460        2.22380        1.20920
H          0.72030        1.75460       -2.01840
H         -0.43490        3.06670       -1.52920
H          2.18630        2.20970       -0.02220
H          1.06880        3.57710        2.02370
H         -1.37080        4.20210        1.77010
H         -1.26320        4.04660       -0.02980
H         -1.08900        1.69720        2.05280
