15
gdb 16634	3.35643	2.36879	1.55588	4.6984	61.05	-0.2396	0.0532	0.2928	806.594	0.119875	-399.827973	-399.821024	-399.82008	-399.859243	25.716
C         -0.06910        1.39270        0.05460
N         -0.03150       -0.04720        0.17440
C         -1.17870       -0.89550        0.11680
C         -1.36440       -1.69760       -1.16250
C         -0.57470       -2.26150       -0.00860
O          0.82660       -2.10310       -0.02550
C          1.13850       -0.76140        0.04010
O          2.26040       -0.34070       -0.02940
H          0.96040        1.75200        0.09010
H         -0.52720        1.70690       -0.89190
H         -0.63480        1.83780        0.88060
H         -2.01090       -0.65110        0.76780
H         -2.34090       -2.13750       -1.33480
H         -0.82910       -1.38060       -2.05110
H         -0.89640       -3.13670        0.53990
