14
gdb 19548	4.29503	1.73955	1.69817	3.015	63.27	-0.2422	-0.0264	0.2158	798.9809	0.107166	-382.477801	-382.471532	-382.470588	-382.508481	23.715
O         -0.24770        0.03330       -0.15230
C         -0.04900        1.20550        0.07170
C          1.24840        1.85880        0.01360
C          1.91730        2.91890        0.93420
C          3.18890        2.06660        1.00280
C          2.72520        1.48530       -0.35560
O          2.80920        2.63430       -1.25660
C          1.72070        3.19290       -0.53860
H         -0.88040        1.89470        0.34990
H          1.43290        3.49450        1.71250
H          4.15680        2.57620        1.00660
H          3.13090        1.32720        1.80390
H          3.10070        0.56270       -0.78790
H          1.16520        4.01750       -0.96530
