15
gdb 996	3.96414	3.23238	1.8133	1.725	63.78	-0.1817	0.0545	0.2363	691.1415	0.12689	-304.72746	-304.720443	-304.719499	-304.758236	25.772
C         -0.06020        1.44260        0.01530
N         -0.01750       -0.00330        0.00020
C          0.01650       -0.79690       -1.12490
C          0.04160       -2.11110       -0.72640
C          0.04490       -2.12330        0.69610
C          0.01140       -0.81050        1.11760
N         -0.06980       -0.22560        2.40130
H          0.94110        1.88560       -0.05680
H         -0.65860        1.80160       -0.82570
H         -0.51980        1.76880        0.95010
H          0.02230       -0.35020       -2.10650
H          0.05960       -2.96930       -1.38050
H          0.06980       -2.98840        1.34170
H         -0.43730       -0.89290        3.06840
H          0.83460        0.08390        2.74730
