12
gdb 9995	3.46203	1.33108	0.99615	4.1961	58.26	-0.2965	-0.0676	0.2289	1079.8169	0.080813	-414.652829	-414.644441	-414.643496	-414.687322	27.002
N         -0.23600        1.35860       -0.25160
C         -0.10250        0.11230       -0.19760
O         -1.19870       -0.65730        0.06700
C         -1.00740       -2.05760        0.09540
C         -2.15710       -2.64190        0.94800
O         -2.53050       -3.77350        0.86740
C         -0.95340       -2.65030       -1.24730
N         -0.89280       -3.09560       -2.31060
H          0.65710        1.80750       -0.44320
H          0.81650       -0.47130       -0.33500
H         -0.07430       -2.31580        0.62320
H         -2.56910       -1.89510        1.65590
