14
gdb 3086	3.64186	2.3425	1.98077	3.8663	58.24	-0.2728	0.0259	0.2988	708.0735	0.112695	-324.576679	-324.569261	-324.568317	-324.608009	26.332
C         -0.14260        1.57270       -0.03940
C          0.01340        0.07050       -0.00130
C          1.33860       -0.57900       -0.23530
O          2.41270        0.26460       -0.47160
C          0.72040       -0.62770        1.16920
C          1.34000        0.13910        2.20790
N          1.86310        0.74100        3.04710
H          0.76180        2.07500        0.30620
H         -0.34190        1.90340       -1.06350
H         -0.97910        1.89060        0.59000
H         -0.84280       -0.48910       -0.36730
H          1.36200       -1.52860       -0.76940
H          3.17590       -0.04950        0.02610
H          0.31470       -1.57780        1.50030
