15
gdb 1919	5.86137	2.11734	1.85161	1.5198	56.84	-0.2459	0.0733	0.3193	701.3333	0.124521	-345.613396	-345.606614	-345.60567	-345.643626	26.109
O         -0.12330        1.44530       -0.04840
C         -0.02800        0.03790        0.01570
C          0.25150       -0.62280        1.41640
C         -1.11860       -1.30190        1.31390
O         -1.36160       -2.61820        1.66450
C         -2.20670       -0.28000        1.16760
C         -1.37970       -0.66250       -0.04390
H          0.75940        1.81040        0.06940
H          0.66390       -0.34490       -0.74580
H          1.07570       -1.33910        1.37890
H          0.39880        0.06820        2.25360
H         -1.66450       -2.63540        2.57890
H         -3.20870       -0.69700        1.15960
H         -2.12080        0.71390        1.59690
H         -1.83590       -1.08100       -0.93190
