20
gdb 8383	3.86937	1.3509	1.2084	1.5286	75.42	-0.229	0.0753	0.3043	1088.6516	0.175712	-348.975473	-348.96664	-348.965695	-349.010588	32.656
C         -0.65190        1.34400       -0.07620
C          0.03610       -0.01200        0.00170
C          1.32350       -0.18190       -0.87030
C          2.12590       -0.43400        0.41360
C          3.28640       -1.39450        0.57760
C          3.50460        0.09230        0.67300
O          4.21140        0.81270       -0.29660
C          0.87680       -0.28730        1.29110
H          0.05980        2.15680        0.10980
H         -1.09500        1.50960       -1.06470
H         -1.45230        1.42590        0.66780
H         -0.69240       -0.80530       -0.18860
H          1.29150       -1.01390       -1.58040
H          1.61860        0.72560       -1.41060
H          3.34990       -1.99190        1.48280
H          3.64220       -1.90300       -0.31570
H          3.71240        0.51370        1.65230
H          4.04860        0.41050       -1.15580
H          0.90650        0.54850        1.99870
H          0.58960       -1.19030        1.83830
