13
gdb 17936	3.3357	2.57709	2.0374	2.9472	58.62	-0.2177	-0.062	0.1557	687.8951	0.093877	-398.444202	-398.43794	-398.436996	-398.474113	24.814
O         -0.23230        1.50010       -0.04440
C         -0.10230        0.13950       -0.00040
C         -1.11200       -0.90260       -0.23610
C         -0.75550       -1.53870       -1.60410
N          0.74990       -1.62660       -1.54410
C          1.00040       -0.85250       -0.57630
O          1.38300       -1.33340        0.69100
C         -0.00940       -0.90000        1.01500
H          0.52410        1.89980        0.40170
H         -2.14060       -0.78700        0.09980
H         -1.08690       -2.57620       -1.70300
H         -1.17070       -0.96160       -2.44340
H         -0.30050       -1.00920        2.05280
