18
gdb 10084	2.19377	1.5649	1.02793	3.1945	65.67	-0.2766	0.001	0.2776	1164.2598	0.151485	-422.100827	-422.091406	-422.090462	-422.135918	32.467
C         -0.14230        1.54420        0.32850
C          0.01800        0.03000        0.18140
C          0.66910       -0.39680       -1.13240
C          0.79770       -1.91430       -1.28720
O         -0.45520       -2.56320       -1.25380
O         -0.16030        0.05780       -2.23050
C          0.38660        0.82640       -3.19140
O         -0.22200        1.19110       -4.15150
H          0.82420        2.05800        0.26950
H         -0.78920        1.95100       -0.45370
H         -0.59020        1.79340        1.29460
H          0.63970       -0.36360        0.99490
H         -0.95080       -0.47250        0.26020
H          1.66460        0.06070       -1.22900
H          1.34230       -2.13290       -2.21960
H          1.38620       -2.31650       -0.45570
H         -0.98900       -2.17570       -1.95760
H          1.44490        1.07990       -2.98640
