16
gdb 7761	3.39072	1.77721	1.24551	3.1048	66.48	-0.2434	-0.0167	0.2267	943.6763	0.130551	-383.767858	-383.760353	-383.759409	-383.799874	28.1
O         -0.14560        1.45970       -0.01550
C          0.06370        0.04940       -0.04390
C         -1.31790       -0.59350        0.13180
C         -1.31080       -2.07500       -0.20060
O         -1.75130       -2.91660        0.54490
C         -0.72420       -2.43010       -1.56380
C          0.36630       -1.48940       -2.00370
C          0.71810       -0.39710       -1.32870
H          0.71490        1.89100        0.00470
H          0.70330       -0.24390        0.80610
H         -1.70370       -0.44630        1.14170
H         -1.98960       -0.08830       -0.57540
H         -0.37620       -3.46840       -1.52750
H         -1.54850       -2.41960       -2.29390
H          0.89230       -1.75310       -2.91790
H          1.53100        0.22870       -1.69170
