14
gdb 9031	4.68851	0.88449	0.76687	3.3005	75.02	-0.2683	-0.0639	0.2044	1403.8787	0.103518	-345.344286	-345.335168	-345.334224	-345.379613	30.621
C          0.02500        1.47820       -0.15890
C          0.00240       -0.05370        0.08720
C          0.69990       -0.40910        1.32730
C          1.28780       -0.67580        2.33950
C         -1.37050       -0.56430        0.07130
C         -2.51030       -0.95900        0.02460
C         -3.86390       -1.45290        0.01420
O         -4.63990       -1.30630       -0.90190
H          1.05930        1.82790       -0.18810
H         -0.46260        1.71060       -1.10830
H         -0.49920        1.99870        0.64510
H          0.53270       -0.53070       -0.75030
H          1.80310       -0.92140        3.23520
H         -4.15340       -1.99520        0.93710
