15
gdb 12257	3.47312	1.54307	1.20878	2.7163	58.	-0.2506	0.0185	0.2691	972.1512	0.117956	-436.940304	-436.931896	-436.930951	-436.973552	29.515
O         -0.09240        1.35120       -0.33900
C          0.01850       -0.00480        0.07330
C         -1.39370       -0.55520        0.12380
N         -2.06030       -0.63210       -1.18750
C         -2.04940       -1.99840       -1.27020
O         -2.28570       -2.79300       -2.14290
C         -1.52340       -2.11170        0.18560
O         -0.32410       -2.82800        0.33830
H          0.79410        1.71120       -0.43350
H          0.61920       -0.59750       -0.62880
H          0.47810       -0.09560        1.06890
H         -1.98260       -0.01000        0.86780
H         -2.17810        0.08020       -1.89380
H         -2.28740       -2.44550        0.89920
H         -0.34130       -3.54650       -0.30500
