22
gdb 7549	2.84138	1.42348	1.13799	0.9308	79.43	-0.2417	0.0886	0.3303	1188.231	0.197559	-350.196583	-350.186672	-350.185727	-350.231159	36.221
C         -0.21270        1.51030        0.08890
C         -0.09000        0.00340        0.24320
O         -1.25130       -0.59150       -0.31580
C         -1.36870       -1.97630       -0.13010
C         -0.42210       -2.81140       -0.96650
C         -1.78380       -2.45360        1.24540
C         -2.77770       -2.45760        0.09620
C         -3.95000       -1.50280        0.09360
H          0.67200        2.00900        0.49640
H         -0.30820        1.78100       -0.96660
H         -1.09580        1.88140        0.61710
H          0.81580       -0.35680       -0.26760
H          0.00320       -0.27410        1.30440
H          0.62370       -2.65400       -0.68100
H         -0.63830       -3.87660       -0.84450
H         -0.52690       -2.55870       -2.02700
H         -1.39590       -3.39620        1.61750
H         -1.92550       -1.69270        2.00630
H         -2.99300       -3.43560       -0.32810
H         -3.64860       -0.51830        0.45710
H         -4.35140       -1.37300       -0.91740
H         -4.75960       -1.87620        0.73030
