10
gdb 3894	5.89475	2.78255	1.89027	2.5281	51.32	-0.2544	-0.0708	0.1836	597.6286	0.067759	-359.30132	-359.296137	-359.295193	-359.330338	18.997
O          0.04840       -0.05990        0.00260
C         -0.02660        1.15680        0.01000
C         -1.23910        1.95100        0.03030
C         -1.13060        3.29270        0.03590
O          0.02530        3.97580        0.02410
N          1.24060        3.29660        0.00430
C          1.18620        2.01260       -0.00170
H         -2.21030        1.47340        0.04070
H         -1.96810        3.98220        0.05070
H          2.15660        1.52230       -0.01720
