17
gdb 4020	3.22698	1.3992	1.10249	0.4104	73.29	-0.2469	0.0089	0.2557	1098.4306	0.138312	-363.794421	-363.784845	-363.783901	-363.828868	34.242
C          0.01330        1.58610        0.00770
C         -0.05420        0.04880        0.01830
C          0.70620       -0.50930        1.14120
C          1.32590       -0.95620        2.06930
C         -1.47240       -0.51320        0.02110
C         -1.66690       -2.00260       -0.05660
N         -2.42630        0.33240        0.06900
O         -3.67910       -0.30020        0.04310
H          1.05680        1.90820       -0.03080
H         -0.51890        1.98260       -0.85930
H         -0.44910        1.99810        0.90630
H          0.41900       -0.32010       -0.90580
H          1.87640       -1.35070        2.88720
H         -2.28930       -2.34780        0.77410
H         -2.19970       -2.26570       -0.97660
H         -0.71250       -2.52980       -0.02700
H         -4.28340        0.44780        0.09460
