17
gdb 13196	5.7069	1.11174	1.08233	4.5614	66.09	-0.2444	0.0197	0.2641	1138.643	0.142237	-401.004964	-400.996343	-400.995399	-401.039789	29.27
C          0.07010        1.48480        0.20340
N          0.13920        0.04400        0.05320
C          0.20950       -0.56640       -1.16430
O          0.22000        0.04500       -2.22000
C          0.27540       -2.08170       -1.12770
C         -0.68930       -2.82200       -2.08820
O          0.39640       -3.52160       -2.72410
C          1.36780       -2.73070       -2.01460
H          0.08720        1.91480       -0.79860
H         -0.85310        1.78930        0.70890
H          0.92400        1.86780        0.77300
H          0.13510       -0.52950        0.87980
H          0.25670       -2.47990       -0.11050
H         -1.40720       -3.50680       -1.62330
H         -1.20530       -2.14780       -2.78120
H          1.87030       -2.01140       -2.67120
H          2.10850       -3.35080       -1.49750
