20
gdb 6862	3.18865	1.83426	1.62729	0.117	70.85	-0.232	0.0852	0.3171	914.8035	0.177266	-386.1469	-386.138858	-386.137914	-386.178544	31.541
C          0.03580        1.49730        0.04360
C         -0.05270       -0.02520       -0.01470
C         -1.51620       -0.49310       -0.01770
C          0.69900       -0.56230       -1.24560
O          0.84230       -1.97230       -1.19810
C          1.56980       -2.36020       -0.04320
C          0.85400       -1.88300        1.21410
O          0.63150       -0.48270        1.16780
H          1.07950        1.81620        0.11390
H         -0.41190        1.94820       -0.84740
H         -0.49430        1.87180        0.92390
H         -2.07570        0.01840       -0.80730
H         -1.59440       -1.56710       -0.20090
H         -1.98510       -0.26130        0.94280
H          0.15230       -0.33400       -2.16570
H          1.69120       -0.08440       -1.29790
H          1.64560       -3.45170       -0.06430
H          2.58650       -1.93400       -0.07690
H         -0.09230       -2.43180        1.33100
H          1.46540       -2.06800        2.10350
