17
gdb 6151	4.78512	1.18137	1.17546	5.1338	67.29	-0.24	0.0267	0.2667	1074.6018	0.140638	-401.009061	-401.000502	-400.999558	-401.043021	30.539
C          0.23620        1.44620        0.05080
C         -0.13630       -0.02610       -0.03450
O         -1.51770       -0.21450       -0.23660
C          0.79620       -0.88360       -0.96800
N          1.29210       -1.54980        0.23490
C          0.35780       -0.90370        1.15300
C          2.22030       -2.50300        0.46140
O          2.46790       -2.97850        1.55110
H          1.30270        1.57290        0.25890
H          0.01920        1.95770       -0.89540
H         -0.33410        1.93490        0.84660
H         -1.81080        0.38700       -0.92960
H          0.22740       -1.53770       -1.63840
H          1.55480       -0.33470       -1.53720
H          0.83270       -0.37710        1.98600
H         -0.41680       -1.57500        1.53640
H          2.74500       -2.79810       -0.47140
