16
gdb 21096	3.48645	2.02469	1.30529	5.1051	68.31	-0.2117	0.0188	0.2305	924.4433	0.130934	-376.107563	-376.099055	-376.098111	-376.14075	29.613
C         -0.04740        1.42390       -0.02640
N         -0.03400       -0.01810        0.04860
N         -0.10090       -0.77740       -1.07770
N         -0.08850       -2.02110       -0.70180
C          0.00520       -2.09900        0.65640
C          0.03860       -3.39780        1.39240
C          0.04510       -0.80710        1.14810
N          0.06040       -0.27950        2.44070
H          0.94140        1.84800        0.18260
H         -0.34080        1.69380       -1.04080
H         -0.76800        1.82890        0.68980
H          0.76050       -3.37870        2.21780
H         -0.93720       -3.66680        1.81550
H          0.33160       -4.19600        0.70670
H          0.10390       -1.01000        3.13940
H          0.81410        0.37920        2.60360
