13
gdb 15736	2.952	1.74939	1.27033	4.7746	59.04	-0.2767	-0.0584	0.2183	926.7953	0.09387	-398.595443	-398.587689	-398.586744	-398.6287	26.438
O          0.07720       -0.59110       -0.98600
C         -0.01070        0.53000       -0.55840
C          0.67010        0.95040        0.76380
C          1.87140        1.73770        0.50360
N          2.83040        2.34310        0.28360
C         -0.78910        1.58530       -1.28830
C         -1.91370        2.27540       -0.61970
O         -0.67160        2.92880       -0.82860
H         -0.01030        1.54570        1.38070
H          0.93610        0.03630        1.30010
H         -0.83300        1.44330       -2.36620
H         -2.74360        2.62110       -1.23260
H         -2.16060        2.04150        0.41480
