12
gdb 21850	3.81669	1.91206	1.27388	2.2514	64.98	-0.2168	0.0146	0.2314	866.2556	0.084672	-377.511131	-377.504186	-377.503242	-377.542109	26.097
O          0.10010        1.30570        0.11110
C          0.05690       -0.02680       -0.02370
C          0.02280       -0.84400       -1.14960
C         -0.01460       -2.15720       -0.59780
N         -0.00540       -2.15280        0.72290
N          0.03910       -0.82930        1.05450
C          0.02780       -0.38230       -2.47990
C          0.03420        0.06590       -3.59990
H          0.10600        1.68880       -0.77630
H         -0.04800       -3.09180       -1.13740
H          0.05480       -0.55090        2.02100
H          0.03930        0.43840       -4.59390
