15
gdb 15468	2.76831	2.05067	1.44345	4.8911	64.99	-0.2626	-0.045	0.2175	879.8447	0.119844	-362.711135	-362.703891	-362.702947	-362.743214	26.419
O          0.02090        0.03580       -0.28230
C         -0.01420        1.20890       -0.04910
C         -1.25370        2.07320        0.18290
C         -0.72330        3.44320        0.62930
C          0.65030        3.56350       -0.06510
C          1.24750        2.14020        0.02940
C          1.93530        1.91350        1.29650
N          2.45850        1.75010        2.31480
H         -1.78380        2.13960       -0.77620
H         -1.93110        1.58340        0.88620
H         -1.39110        4.26650        0.36830
H         -0.58850        3.46000        1.71590
H          0.51980        3.81400       -1.12330
H          1.29390        4.32220        0.38250
H          1.92670        1.88660       -0.78880
