15
gdb 19986	3.83432	1.39143	1.12747	2.4175	67.89	-0.2493	0.029	0.2783	1034.7703	0.11763	-362.568175	-362.560497	-362.559553	-362.600682	28.171
C         -0.07090       -1.16880       -0.43600
C         -0.00280        0.01090       -0.21510
C          0.07030        1.42980        0.00580
N          0.25020        1.90290        1.39710
C          1.33180        2.12130        0.43380
C          2.59940        1.37400        0.67440
C          3.78250        1.59560       -0.16510
O          3.70170        2.15660        1.14550
H         -0.13280       -2.21300       -0.61880
H         -0.58220        2.01560       -0.63870
H         -0.28300        2.75620        1.54250
H          1.48120        3.12680        0.04370
H          2.47600        0.41240        1.16880
H          4.50880        0.79450       -0.29220
H          3.73670        2.31260       -0.98440
