12
gdb 438	7.38256	3.60727	2.49744	2.5958	50.91	-0.2409	-0.0164	0.2245	502.2039	0.096841	-269.263802	-269.258575	-269.257631	-269.292553	19.177
O          0.00160        0.03010        0.00380
C         -0.01470        1.23200        0.01060
C         -1.27270        2.11890        0.03220
C         -0.71290        3.51530        0.03210
C          0.62140        3.53350        0.01440
C          1.21880        2.15290       -0.00080
H         -1.90390        1.89350       -0.83720
H         -1.88020        1.88430        0.91600
H         -1.34450        4.39610        0.04510
H          1.22880        4.43120        0.01100
H          1.85580        1.93520        0.86640
H          1.83270        1.94450       -0.88670
