12
gdb 1053	7.9364	2.20291	1.74328	0.2234	51.5	-0.2226	0.0234	0.246	681.0569	0.091378	-360.53692	-360.530866	-360.529922	-360.566989	21.224
C         -0.02610        1.36470        0.03140
O          0.02790       -0.06480       -0.04250
C          0.64000       -0.53870       -1.11490
N          1.19220        0.09790       -2.09870
C          1.66450       -0.93220       -2.91570
C          1.36100       -2.12450       -2.36440
O          0.68870       -1.88080       -1.18130
H          0.98280        1.78560        0.05170
H         -0.56330        1.77270       -0.82910
H         -0.55510        1.59040        0.95700
H          2.18540       -0.72630       -3.83710
H          1.51460       -3.15720       -2.62100
