20
gdb 12420	2.84329	1.9548	1.42675	2.4664	70.	-0.25	0.0598	0.3097	943.595	0.178948	-386.162844	-386.154895	-386.153951	-386.19453	31.497
O          0.03320        1.41880       -0.00020
C          0.03550        0.00190        0.01920
C          0.83770       -0.55870        1.20310
C          0.80370       -2.09430        1.23540
C         -0.64030       -2.61440        1.26320
C         -1.44420       -2.06550        0.07610
C         -1.40400       -0.53350        0.01740
O         -2.02750        0.06280        1.16350
H         -0.61860        1.68210        0.66200
H          0.51070       -0.31360       -0.91850
H          1.86490       -0.18590        1.13920
H          0.40820       -0.16100        2.13050
H          1.31620       -2.49170        0.34760
H          1.35940       -2.46500        2.10370
H         -0.65620       -3.70950        1.25150
H         -1.12220       -2.29730        2.19550
H         -1.03510       -2.45600       -0.86580
H         -2.48790       -2.40290        0.12120
H         -1.90080       -0.17550       -0.89600
H         -2.97620       -0.08050        1.10260
