17
gdb 7779	3.68625	1.75352	1.25508	2.2109	66.16	-0.2622	0.0163	0.2785	960.6181	0.143364	-401.019411	-401.011933	-401.010989	-401.051212	28.057
C          0.00400        1.53350        0.06460
C          0.02930        0.01640        0.02550
C          0.66140       -0.55310       -1.24920
C          0.92180       -2.03780       -1.14230
N          0.86460       -2.80060       -2.14900
O          1.32210       -2.48450        0.08970
C          0.77420       -1.82040        1.23420
O          0.80110       -0.43920        1.14170
H          1.02040        1.93270       -0.00580
H         -0.58290        1.92590       -0.77100
H         -0.44090        1.88440        0.99940
H         -0.99670       -0.37610        0.13060
H          0.04650       -0.36830       -2.13180
H          1.62840       -0.05630       -1.40050
H          1.11050       -3.75520       -1.87660
H         -0.25790       -2.18470        1.37450
H          1.39940       -2.11540        2.07820
