19
gdb 15840	5.59899	1.00601	0.94921	2.6125	68.65	-0.2379	0.0746	0.3125	1273.2084	0.165045	-402.15469	-402.145734	-402.14479	-402.188623	31.98
C          0.26440        1.32490       -0.08120
O          0.11290       -0.07430        0.00840
C          0.61190       -0.62120        1.21510
C          0.50300       -2.14080        1.08560
O          1.15710       -2.56410       -0.09920
C          1.13510       -2.84160        2.27110
C          1.66390       -4.21770        2.13970
N          2.58710       -3.07350        2.29030
H          1.32160        1.62350       -0.01380
H         -0.13290        1.63560       -1.05040
H         -0.29210        1.84240        0.71440
H          1.66450       -0.33140        1.36270
H          0.03240       -0.26120        2.07990
H         -0.56790       -2.40180        1.04190
H          0.93540       -1.90380       -0.76770
H          0.72130       -2.53330        3.23000
H          1.62750       -4.89370        2.98930
H          1.59410       -4.68890        1.16470
H          2.94130       -2.84540        1.36230
