17
gdb 14482	3.89879	2.17578	2.14784	1.3437	65.47	-0.2286	0.064	0.2926	727.3397	0.145263	-363.854036	-363.848015	-363.84707	-363.883611	25.543
O         -0.08940        1.35750        0.02050
C          0.00100       -0.03790        0.00950
C          0.73450       -0.75410        1.17380
C          0.48990       -2.16750        0.67020
C         -0.81870       -2.16310       -0.04830
C         -1.36800       -0.74610        0.01600
N          0.45610       -2.15920       -0.82230
C          0.66100       -0.74300       -1.19800
H          0.80300        1.71890        0.00420
H          1.79710       -0.49120        1.22950
H          0.26910       -0.55610        2.14400
H          0.91090       -3.04680        1.14280
H         -1.44930       -3.03800       -0.14850
H         -1.93660       -0.54830        0.92950
H         -1.97900       -0.47090       -0.84870
H          0.16310       -0.51970       -2.14620
H          1.73120       -0.52850       -1.29680
