19
gdb 11409	3.47159	1.55593	1.21849	3.1998	72.61	-0.2526	0.0326	0.2852	1048.1497	0.16665	-365.099369	-365.091311	-365.090367	-365.132125	30.012
C          0.07680        1.37690        0.36500
C         -0.10610       -0.12510        0.13490
C         -1.54110       -0.50900       -0.22800
C         -1.78080       -2.02670       -0.35560
C         -2.25390       -2.41450        1.05190
C         -2.87550       -1.13620        1.57160
N         -3.66590       -1.04290        2.55180
O         -2.45200       -0.08120        0.81220
H          1.11140        1.61100        0.63180
H         -0.17330        1.94700       -0.53680
H         -0.57290        1.72650        1.17130
H          0.54550       -0.46410       -0.68070
H          0.19870       -0.68270        1.03000
H         -1.84270        0.02980       -1.13260
H         -2.56840       -2.22130       -1.08930
H         -0.88320       -2.55900       -0.67780
H         -2.97080       -3.23520        1.07950
H         -1.41560       -2.69150        1.70040
H         -3.92930       -0.06780        2.70520
