14
gdb 1079	6.48147	2.87979	2.04562	2.0543	64.43	-0.196	0.0558	0.2518	623.248	0.116366	-287.441165	-287.435599	-287.434654	-287.47071	21.109
C         -0.00990        1.56350       -0.02090
C          1.55570        1.40660       -0.13840
C          1.31590       -0.01450        0.34800
C          1.62030       -1.30070        0.73210
C          0.35700       -1.89350        1.05980
C         -0.65830       -0.96680        0.86890
N         -0.02960        0.16520        0.43440
H         -0.35770        2.27960        0.72920
H         -0.53960        1.73100       -0.96310
H          1.94560        1.51300       -1.15450
H          2.12660        2.05850        0.52850
H          2.58650       -1.77740        0.78260
H          0.20950       -2.90680        1.40390
H         -1.72450       -1.04040        1.00740
