13
gdb 11318	4.85717	1.58364	1.2031	2.4836	67.47	-0.2745	-0.0877	0.1869	938.4249	0.09572	-398.654344	-398.647372	-398.646428	-398.685906	24.883
C         -0.04330        1.44060        0.07870
N         -0.03060       -0.00740        0.17560
C         -1.10240       -0.66020        0.06680
O         -2.36260       -0.11900       -0.14710
C         -3.28940       -1.15920       -0.20990
O         -4.45300       -0.96080       -0.38760
C         -2.53800       -2.42260       -0.02070
C         -1.24630       -2.11840        0.14210
H          0.62720        1.73900       -0.73500
H         -1.03290        1.87590       -0.09020
H          0.38140        1.85320        1.00060
H         -3.02420       -3.38630       -0.02630
H         -0.40080       -2.77060        0.30450
