15
gdb 18005	5.20964	1.49035	1.32297	3.6415	63.3	-0.2478	0.018	0.2657	910.8388	0.119557	-399.775616	-399.768716	-399.767772	-399.807777	24.756
O         -0.02090       -0.04280        0.33320
C          0.01540        1.16950        0.31910
N          1.11160        1.89960        0.01130
C          2.47130        1.47770       -0.35400
C          2.82670        2.97860       -0.51410
O          2.57870        3.48550       -1.83430
C          1.24960        3.93930       -1.47580
C          1.37980        3.33260       -0.06360
H         -0.85230        1.81520        0.57030
H          2.98820        0.95440        0.45780
H          2.53840        0.89300       -1.27530
H          3.75000        3.35350       -0.07150
H          1.18970        5.03470       -1.48890
H          0.46940        3.51570       -2.11670
H          1.09120        3.92700        0.80390
