14
gdb 2253	3.8015	3.11204	2.02353	3.6385	58.29	-0.2347	-0.0135	0.2212	656.7162	0.112946	-324.551643	-324.545092	-324.544148	-324.581913	24.295
C         -0.06040        1.56820        0.04130
C          0.11640        0.08380        0.00460
N         -0.79130       -0.85650        0.75590
C          0.65800       -0.92840        0.98660
C          1.19620       -1.84410       -0.11980
C          0.69050       -0.75980       -1.11820
O          0.88540       -0.55350       -2.28030
H          0.81340        2.07250       -0.38260
H         -0.93550        1.87210       -0.54280
H         -0.19720        1.92490        1.06780
H         -1.19920       -0.29130        1.50270
H          1.09730       -0.73540        1.95670
H          2.28600       -1.92310       -0.16490
H          0.73970       -2.83390       -0.18070
