16
gdb 14857	3.16725	1.60236	1.17754	2.2662	66.19	-0.2512	0.0323	0.2835	1003.8345	0.129337	-383.676955	-383.668778	-383.667834	-383.710013	29.578
O         -0.10440        1.43450       -0.27420
C          0.05140        0.03690       -0.12600
C         -1.27850       -0.58400        0.26730
O         -2.27930       -0.28280       -0.73990
C         -2.38760       -1.66760       -1.12430
C         -1.47760       -2.11690        0.05280
C         -0.33020       -2.95000       -0.23960
C          0.61580       -3.64860       -0.49050
H         -0.84730        1.55290       -0.87940
H          0.42460       -0.43300       -1.04860
H          0.79800       -0.12970        0.65750
H         -1.59490       -0.20840        1.24690
H         -3.42260       -2.02290       -1.09060
H         -1.96510       -1.86060       -2.11660
H         -2.06070       -2.55570        0.86650
H          1.45340       -4.26410       -0.70880
