16
gdb 17647	3.66406	1.51574	1.29441	3.5977	60.94	-0.2441	0.0119	0.256	964.2004	0.130853	-417.061193	-417.05296	-417.052015	-417.094305	29.986
N          0.06060        1.24040        0.09770
C          0.01670       -0.10980        0.03910
O          1.01290       -0.81580        0.03210
C         -1.37780       -0.76560       -0.04910
O         -1.18700       -2.14450       -0.21070
C         -2.21350       -0.47280        1.19530
C         -3.21160       -1.46320        1.65700
N         -1.96680       -1.23770        2.41990
H          0.95380        1.68920        0.22080
H         -0.77220        1.79730        0.17540
H         -1.89710       -0.34510       -0.92650
H         -0.21770       -2.25470       -0.21050
H         -2.41670        0.58430        1.36380
H         -4.11940       -1.12670        2.14930
H         -3.29690       -2.38240        1.08700
H         -1.32130       -1.99170        2.18680
