20
gdb 8156	3.68034	1.72383	1.43322	1.2753	74.85	-0.2288	0.085	0.3137	969.7094	0.176963	-349.008651	-349.000656	-348.999712	-349.040589	31.217
C          0.13570        1.52130        0.06570
C          0.07010        0.00880       -0.05140
C          0.82510       -0.60460       -1.25390
C          1.33450       -1.93130       -0.69890
C          2.54300       -1.87870        0.22280
C          1.14880       -1.86310        0.79330
C          0.60220       -2.96210        1.66250
O          0.67060       -0.57330        1.11590
H          1.17710        1.85500        0.11220
H         -0.34430        1.99280       -0.79780
H         -0.37510        1.86160        0.97080
H         -0.98510       -0.30870       -0.09660
H          0.16180       -0.74600       -2.11190
H          1.64500        0.04860       -1.57570
H          1.14230       -2.84660       -1.24700
H          3.13120       -2.78530        0.32740
H          3.11090       -0.95520        0.27000
H          1.00510       -3.93320        1.35990
H          0.87110       -2.79570        2.71110
H         -0.49030       -3.00580        1.59700
