14
gdb 17050	5.64728	1.36906	1.30621	3.1877	58.92	-0.2581	-0.0208	0.2373	938.5431	0.105044	-419.589938	-419.582678	-419.581733	-419.621804	26.031
C          0.16120        1.30080        0.16070
O         -0.30770        0.03350       -0.26000
C          0.43930       -0.51720       -1.28450
C          1.75800       -1.28940       -0.92020
O          0.91770       -2.35120       -0.30840
C          0.15300       -2.01540       -1.53910
C          1.54670       -2.10690       -2.21980
O          2.13120       -2.65030       -3.09640
H          1.16920        1.23840        0.59440
H          0.18130        2.01980       -0.67200
H         -0.53190        1.65870        0.92410
H          0.49700        0.13800       -2.16790
H          2.65190       -0.97710       -0.38580
H         -0.79200       -2.52530       -1.70830
