12
gdb 21605	3.54533	2.27984	1.38908	3.1825	61.91	-0.2258	-0.0648	0.161	800.6802	0.084906	-414.649058	-414.642598	-414.641654	-414.679496	24.587
N          0.01560        1.38400        0.13670
C         -0.04620        0.01470        0.04450
C         -1.17330       -0.74180        0.01580
O         -1.18610       -2.09430       -0.02160
N         -0.02410       -2.81520       -0.03130
C          1.08160       -2.14260       -0.01220
C          1.23070       -0.69080        0.01610
O          2.31090       -0.10920        0.00500
H          0.93900        1.73600       -0.08220
H         -0.74840        1.92460       -0.23580
H         -2.18550       -0.35490        0.02190
H          1.98030       -2.75220       -0.02820
