20
gdb 14968	4.07178	1.36094	1.07041	1.4029	77.45	-0.2231	0.0383	0.2614	1131.8455	0.178515	-349.022903	-349.014682	-349.013738	-349.055576	30.978
O          0.09210        1.42950       -0.04390
C          0.01710        0.01860        0.03700
C         -1.41350       -0.44920        0.03510
C         -2.44470        0.39630        0.05170
C         -3.88790       -0.03580        0.03060
C         -4.05300       -1.51730       -0.33770
C         -3.01650       -2.37650        0.39450
C         -1.59210       -1.95110        0.01290
H          1.01700        1.68210        0.01850
H          0.54780       -0.45780       -0.80790
H          0.51120       -0.35360        0.95300
H         -2.24310        1.46230        0.08170
H         -4.33960        0.15900        1.01560
H         -4.45030        0.59310       -0.67170
H         -5.06940       -1.85550       -0.10840
H         -3.91710       -1.63850       -1.42050
H         -3.15110       -2.25960        1.47780
H         -3.16400       -3.43890        0.17170
H         -1.34310       -2.33350       -0.98910
H         -0.86530       -2.42130        0.69000
