18
gdb 9965	2.5963	1.67713	1.48432	1.1045	63.78	-0.2246	0.0503	0.2749	967.4196	0.150976	-422.045953	-422.036694	-422.03575	-422.079506	34.27
C         -0.32430        1.46520        0.07930
C          0.15900        0.02090       -0.09770
C          0.80010       -0.52920        1.15860
O          1.99750        0.09530        1.55610
C         -0.05270       -1.09480        2.28700
O         -1.43380       -1.21580        2.13250
C          0.82750       -2.00550        1.44690
O          0.14930       -2.84340        0.54380
H          0.50160        2.13200        0.35180
H         -0.75710        1.85040       -0.84850
H         -1.08820        1.52430        0.86090
H         -0.67970       -0.61700       -0.38610
H          0.89400       -0.03710       -0.90920
H          1.76650        0.94130        1.95560
H          0.24510       -0.87190        3.30820
H         -1.56890       -1.92090        1.48370
H          1.74970       -2.40140        1.86470
H          0.04950       -3.70500        0.96310
