20
gdb 11401	4.48343	1.21681	1.0915	1.4037	77.13	-0.2234	0.0367	0.2601	1155.0488	0.17716	-349.022113	-349.013485	-349.012541	-349.05528	32.055
C         -0.13450        1.50900        0.03890
C          0.00120        0.02010       -0.01730
C         -0.04170       -0.76140       -1.09820
C          0.08660       -2.22700       -0.77040
C          0.51980       -2.22850        0.72340
C          2.01580       -2.50070        0.86580
O          2.28540       -3.80750        0.37780
C          0.17500       -0.80630        1.24160
H          0.74920        1.97320        0.49580
H         -0.26900        1.94150       -0.95640
H         -0.99220        1.80640        0.65670
H         -0.18400       -0.39900       -2.11170
H         -0.87020       -2.74790       -0.91390
H          0.81440       -2.75630       -1.39480
H         -0.00790       -3.00310        1.28700
H          2.57860       -1.73930        0.30070
H          2.30540       -2.40840        1.92500
H          3.23750       -3.93990        0.38070
H          0.95790       -0.40270        1.89930
H         -0.74740       -0.79970        1.83940
