20
gdb 9354	7.29831	0.771	0.71349	3.3362	73.56	-0.2426	-0.0077	0.2349	1638.578	0.173216	-386.155105	-386.14479	-386.143846	-386.192045	34.589
C          0.03130        1.48170        0.05630
C         -0.01030       -0.03270       -0.05070
O         -1.35780       -0.45100        0.05380
C         -1.51410       -1.83260       -0.03320
C         -2.99090       -2.21420        0.05350
O         -3.87030       -1.39000        0.06670
C         -3.26210       -3.71330        0.12160
C         -4.74030       -4.06520       -0.03020
H          1.06190        1.84060       -0.02180
H         -0.55920        1.93760       -0.74300
H         -0.38080        1.80870        1.01490
H          0.41720       -0.36690       -1.01170
H          0.59490       -0.49590        0.74750
H         -1.11890       -2.23210       -0.98710
H         -0.96310       -2.36310        0.76580
H         -2.64890       -4.21820       -0.63700
H         -2.87400       -4.07050        1.08640
H         -4.89400       -5.14320        0.06870
H         -5.33790       -3.55510        0.72860
H         -5.11890       -3.75090       -1.00650
