18
gdb 14466	3.6797	2.11263	2.08899	1.3539	69.61	-0.2372	0.0824	0.3196	763.5809	0.157027	-347.813601	-347.807465	-347.806521	-347.843266	26.336
O         -0.07420        1.36200        0.05940
C          0.04110       -0.02120        0.04230
C          1.08550       -0.77370        0.86370
C          0.61820       -2.19970        0.48360
C         -0.89380       -2.13280        0.82200
C         -1.20210       -0.87400        0.02000
C         -0.25630       -0.87320       -1.18190
C          0.60190       -2.12790       -1.06570
H          0.67160        1.73010       -0.42700
H          2.11340       -0.56500        0.54350
H          1.00290       -0.56620        1.93560
H          1.17750       -3.02560        0.92240
H         -1.44360       -3.01300        0.47180
H         -1.07830       -2.01250        1.89480
H         -2.18120       -0.41800       -0.03770
H         -0.54730       -0.42220       -2.12160
H          1.60450       -2.00420       -1.49010
H          0.14170       -3.01110       -1.52230
