20
gdb 7371	3.4635	1.20866	0.94528	2.8073	72.5	-0.2402	-0.0113	0.2289	1268.4367	0.173001	-386.161489	-386.151253	-386.150308	-386.197689	35.335
C         -0.85000        0.93750        0.12700
C          0.11070       -0.22370       -0.06710
O          0.46660       -0.72470        1.20940
C          1.25890       -1.89700        1.19830
C          2.72080       -1.64690        0.82180
C          1.14650       -2.57370        2.57750
C         -0.00200       -2.15410        3.46770
O          1.94240       -3.42630        2.89740
H         -0.37810        1.73090        0.71350
H         -1.14640        1.35180       -0.84120
H         -1.74950        0.60930        0.65570
H         -0.36070       -1.02280       -0.66360
H          1.00240        0.10910       -0.61900
H          0.82470       -2.62440        0.48620
H          3.29280       -2.56280        0.98060
H          2.81950       -1.34510       -0.22380
H          3.14020       -0.85840        1.45400
H         -0.95490       -2.26400        2.94010
H          0.00440       -2.75870        4.37510
H          0.08650       -1.09160        3.71310
