16
gdb 4788	6.65106	1.3007	1.10967	1.6221	68.74	-0.194	0.0389	0.2328	1073.8753	0.131105	-379.960758	-379.952653	-379.951709	-379.993372	28.833
C         -0.08960        1.42660        0.16510
N         -0.05580        0.00490       -0.13760
C         -1.18450       -0.75870       -0.06180
N         -1.25610       -2.05060        0.06670
C         -2.62770       -2.31830        0.01220
C         -3.15280       -3.70910        0.11880
C         -3.30030       -1.15710       -0.13770
O         -2.37080       -0.12590       -0.18520
H          0.88480        1.85720       -0.07470
H         -0.84160        1.91510       -0.45780
H         -0.32240        1.64390        1.21750
H          0.76360       -0.50210        0.15950
H         -2.84480       -4.17020        1.06350
H         -4.24450       -3.72390        0.06700
H         -2.75970       -4.33700       -0.68810
H         -4.33330       -0.86880       -0.21490
