15
gdb 20236	4.32085	2.72059	2.37263	1.6357	61.9	-0.2359	0.0795	0.3154	635.141	0.122172	-362.593858	-362.588798	-362.587854	-362.622718	21.368
C         -0.02900        1.57720        0.02700
O          1.33860        2.02700        0.01230
C          2.13250        0.86830       -0.11870
C          1.92510        0.05680       -1.40490
C          1.65940       -1.19470       -0.65470
C          1.44190       -0.31880        0.61700
C          0.06410        0.05540        0.03220
N          0.52160       -0.48900       -1.30770
H         -0.52680        1.97910        0.91810
H         -0.55760        1.93460       -0.86580
H          3.16670        1.09590        0.13770
H          2.31990        0.21390       -2.40010
H          1.92010       -2.22750       -0.83480
H          1.63280       -0.54720        1.66230
H         -0.81900       -0.47980        0.38050
