18
gdb 8271	5.09349	1.09672	1.01399	2.093	74.31	-0.2432	0.0523	0.2956	1199.8338	0.151814	-347.760197	-347.751596	-347.750652	-347.793799	31.484
C          0.35980        1.48350        0.20850
C          0.00560        0.03710       -0.06590
C          0.58520       -0.65460       -1.32010
C          1.12190       -1.69700       -0.31880
C          2.62520       -1.98330       -0.32870
C          3.04690       -2.87170        0.74670
C          3.37450       -3.61430        1.63270
O          0.71380       -0.88520        0.80170
H          1.43500        1.65010        0.09090
H         -0.17540        2.14570       -0.48120
H          0.08040        1.75730        1.23080
H         -1.07960       -0.11100        0.03280
H         -0.12660       -1.00890       -2.06670
H          1.37060       -0.07500       -1.81370
H          0.57020       -2.64680       -0.33340
H          2.88250       -2.42670       -1.30060
H          3.16180       -1.02890       -0.26190
H          3.66860       -4.26290        2.42000
