15
gdb 16979	4.10917	2.3593	2.20287	1.5719	65.27	-0.2236	-0.0097	0.2139	684.5857	0.120032	-362.49713	-362.491491	-362.490546	-362.526378	23.918
C          0.02110        1.55840       -0.11790
O          1.49190        1.50470        0.10420
C          1.22690        0.32190        0.93220
C          1.30740       -1.27570        0.91240
N         -0.23200       -1.10310        1.12590
C          0.01470        0.02320        0.11750
C          0.58970       -0.71500       -1.10920
C          1.43720       -1.59150       -0.57050
H         -0.46580        2.16430        0.65280
H         -0.21180        1.92330       -1.12210
H          1.04630        0.65780        1.95670
H          1.83510       -1.86640        1.66160
H         -0.72510       -1.88640        0.69090
H          0.34020       -0.50790       -2.14010
H          2.09290       -2.32090       -1.02230
