16
gdb 17564	3.34074	2.17963	1.66292	1.2659	64.9	-0.2315	0.0796	0.3111	809.0066	0.12993	-383.681779	-383.674792	-383.673848	-383.712602	27.594
O         -0.12630        1.36460       -0.09010
C          0.00660        0.00190        0.00860
C         -0.82470       -0.80770        0.94160
C          0.68240       -0.93860        1.03810
C          1.19520       -1.83440       -0.10440
C          0.57550       -0.84160       -1.10560
C          0.22970       -0.89180       -2.52470
O          1.39580       -0.17640       -2.06310
H          0.60670        1.66820       -0.64280
H         -1.27470       -0.21770        1.73450
H         -1.44180       -1.63450        0.59320
H          1.21860       -0.71030        1.94980
H          2.28330       -1.85090       -0.20120
H          0.81140       -2.85970       -0.12450
H          0.44450       -1.78600       -3.10760
H         -0.57580       -0.26680       -2.90740
