16
gdb 9229	3.95997	1.19905	1.0768	3.6273	67.57	-0.2692	0.005	0.2743	1124.0881	0.128706	-379.937828	-379.92873	-379.927786	-379.972353	30.838
C          0.13900        1.30990       -0.31110
O         -0.06000       -0.04480        0.10320
C         -1.33010       -0.46890        0.19510
C         -1.39520       -1.89950        0.66320
N         -2.28920        0.31800       -0.09580
C         -3.65360       -0.17550        0.01210
C         -4.11010       -0.31510        1.40470
N         -4.44530       -0.43140        2.50480
H          1.21910        1.45960       -0.30810
H         -0.27070        1.47260       -1.31140
H         -0.35010        2.00050        0.38050
H         -0.39130       -2.31070        0.76330
H         -1.90790       -1.95890        1.62800
H         -1.96150       -2.51110       -0.04670
H         -4.31870        0.53750       -0.48590
H         -3.80570       -1.14490       -0.48630
