17
gdb 2221	3.44373	2.80183	2.08965	1.252	63.9	-0.2432	0.0822	0.3255	709.7403	0.148127	-309.687405	-309.680274	-309.67933	-309.717929	27.409
C         -0.03670        1.54750        0.02560
C          0.08110        0.04020        0.11220
C          1.32910       -0.77170       -0.19160
C          2.59130       -0.06380        0.31720
C          1.99420       -0.06020        1.76320
C          0.73530       -0.74650        1.21510
O          0.08910       -1.78290        1.87200
H          0.85570        2.05650        0.39930
H         -0.18830        1.86870       -1.01090
H         -0.88930        1.90990        0.61120
H         -0.80340       -0.48770       -0.24220
H          1.31050       -1.56680       -0.92740
H          3.48580       -0.68520        0.24070
H          2.81150        0.91290       -0.12440
H          2.54420       -0.72680        2.43080
H          1.86420        0.90750        2.25990
H         -0.65100       -1.41410        2.36620
