16
gdb 2320	4.4411	2.03622	1.65616	3.456	61.53	-0.246	0.0276	0.2736	787.5592	0.136567	-325.790442	-325.782829	-325.781885	-325.822514	27.078
C         -0.19770        1.39780        0.35420
C          0.05360       -0.07300        0.11880
C          1.37400       -0.55970       -0.43010
C          0.99430       -0.86710        0.99550
N          1.72630       -0.21900        2.04520
C          1.17050        0.07410        3.25460
O          0.00190       -0.07100        3.53800
H          0.71480        1.91010        0.67170
H         -0.55340        1.88290       -0.56090
H         -0.94890        1.54090        1.13650
H         -0.82120       -0.63280       -0.20000
H          1.39470       -1.37620       -1.14300
H          2.14690        0.18780       -0.58340
H          0.69330       -1.88580        1.22660
H          2.72980       -0.15950        1.96530
H          1.92280        0.47930        3.96250
