17
gdb 5265	6.53185	1.01492	0.93674	2.5457	70.67	-0.2017	0.0484	0.2501	1219.7543	0.143562	-363.892741	-363.884709	-363.883765	-363.925918	29.297
O         -0.07320        1.46860        0.05770
C          0.02420        0.05240        0.10470
C         -1.37940       -0.52280       -0.09420
C         -1.40310       -2.02220       -0.04380
C         -1.53460       -2.87690       -1.11680
N         -1.47950       -4.16640       -0.64980
C         -1.31660       -4.15790        0.71160
C         -1.26390       -2.84540        1.11600
H          0.80730        1.83390        0.18240
H          0.69070       -0.33310       -0.68300
H          0.42950       -0.29030        1.06990
H         -2.03100       -0.09650        0.67790
H         -1.76190       -0.16700       -1.05720
H         -1.66680       -2.66900       -2.16700
H         -1.56770       -4.99050       -1.21700
H         -1.25790       -5.07780        1.27080
H         -1.14610       -2.50250        2.13330
