17
gdb 19827	3.51946	2.24245	1.85652	2.9074	66.62	-0.219	0.0547	0.2736	772.0198	0.143524	-363.776906	-363.770312	-363.769368	-363.80722	26.727
O          0.15640        1.40870       -0.27780
C          0.04630        0.03070       -0.00840
C          0.29340       -0.50210        1.44940
C         -1.12200       -1.14570        1.42400
C         -2.29870       -0.29080        1.92330
C         -2.16110        1.14610        1.62540
N         -2.58610        0.25880        0.52420
C         -1.39910       -0.54390        0.02530
H          1.09140        1.63070       -0.33120
H          0.63890       -0.55240       -0.72830
H          1.11630       -1.21760        1.52300
H          0.43630        0.27560        2.20410
H         -1.20330       -2.21310        1.62090
H         -3.10350       -0.67330        2.54440
H         -2.97730        1.78480        1.95250
H         -1.19990        1.64100        1.57670
H         -1.70560       -1.13540       -0.83740
