15
gdb 526	15.21364	1.3216	1.25359	4.1681	57.89	-0.3164	0.0376	0.354	924.0066	0.13111	-250.583643	-250.576387	-250.575443	-250.614891	24.704
C          0.02040        1.55990        0.01020
C         -0.00800        0.02940        0.00230
C         -1.43160       -0.53520        0.01300
C         -1.44530       -2.07680        0.00480
C         -2.79730       -2.63070        0.01450
N         -3.87390       -3.05060        0.02270
H          1.04720        1.93710        0.00230
H         -0.49270        1.96970       -0.86650
H         -0.47570        1.96030        0.90090
H          0.52410       -0.34480       -0.88240
H          0.54100       -0.35410        0.87250
H         -1.97050       -0.17770        0.89790
H         -1.98740       -0.16830       -0.85750
H         -0.92190       -2.45600       -0.88110
H         -0.90520       -2.46550        0.87640
