19
gdb 4131	3.24448	1.47986	1.10408	0.533	75.22	-0.2338	0.0151	0.249	1111.5379	0.16318	-365.015586	-365.006211	-365.005266	-365.050654	33.64
C          0.12910        1.50880       -0.48980
C         -0.01550        0.08240       -0.00450
C          1.14880       -0.87660       -0.05660
C          0.56240       -0.45440        1.28280
C          1.38250        0.29830        2.27170
C          2.32430       -0.48880        3.14880
N          1.23960        1.56670        2.35410
O          2.09020        2.11550        3.33240
H          1.12460        1.90650       -0.28780
H         -0.04630        1.55270       -1.57110
H         -0.59100        2.17100       -0.00020
H         -0.97770       -0.36000       -0.25340
H          0.99680       -1.89660       -0.39270
H          2.11340       -0.45530       -0.32260
H         -0.03390       -1.22880        1.76370
H          3.36160       -0.19580        2.95430
H          2.13470       -0.27270        4.20450
H          2.22360       -1.56090        2.97120
H          1.86430        3.05030        3.29050
