15
gdb 6083	4.82744	0.86729	0.75699	2.7482	68.4	-0.2575	-0.0255	0.2321	1440.9077	0.116614	-399.798816	-399.789334	-399.78839	-399.834452	32.438
C         -0.23140        1.56700       -0.07060
C          0.07480        0.06820        0.05820
O         -1.08930       -0.68980        0.37050
C          0.75440       -0.44390       -1.13770
C          1.28700       -0.85460       -2.13880
C          1.98010       -1.29690       -3.34160
N          1.60890       -2.54250       -3.76310
O          2.79790       -0.60850       -3.92000
H          0.68740        2.14050       -0.21980
H         -0.88880        1.75200       -0.92640
H         -0.72900        1.91290        0.83890
H          0.73860       -0.08350        0.91820
H         -1.68940       -0.62280       -0.38100
H          1.03660       -3.13610       -3.18790
H          2.11520       -2.94650       -4.53460
