11
gdb 21700	3.48734	2.48383	1.45111	3.1986	59.6	-0.2507	-0.0872	0.1636	762.587	0.07177	-426.810511	-426.803774	-426.80283	-426.841482	24.723
N          0.00190        1.32580       -0.02390
C         -0.00500       -0.02060        0.01750
N         -1.12720       -0.67480        0.08980
O         -1.01720       -2.06190        0.16980
N          0.19450       -2.73090        0.17300
N          1.26460       -2.10200        0.08680
C          1.29130       -0.69730       -0.01310
N          2.36960       -0.02920       -0.12950
H          0.88360        1.77300       -0.21600
H         -0.86290        1.82990       -0.12280
H          3.17380       -0.66120       -0.13960
