15
gdb 12900	3.35752	1.845	1.5205	5.1322	65.89	-0.2567	0.0274	0.2841	866.3689	0.118585	-362.633623	-362.626284	-362.62534	-362.665136	27.065
C         -0.00020        1.56620       -0.00470
C          0.00300        0.06830        0.05390
C         -1.22730       -0.84260        0.06800
O         -0.56250       -1.78500        0.96000
C          0.57020       -0.93960        1.01860
C          1.21520       -0.78210       -0.34860
C          1.15240       -1.80810       -1.35160
N          1.08640       -2.62500       -2.16810
H          0.97980        1.97490        0.25960
H         -0.24700        1.92150       -1.01140
H         -0.73640        1.98330        0.69050
H         -2.08630       -0.38720        0.57160
H         -1.53580       -1.30590       -0.87420
H          1.12240       -0.86960        1.94920
H          2.14590       -0.22180       -0.33300
