18
gdb 14838	2.91023	1.60919	1.1405	4.5178	72.19	-0.2495	0.0156	0.2651	1068.2445	0.154637	-343.977787	-343.96948	-343.968535	-344.010783	30.094
C          0.08040        1.53950       -0.14190
C          0.02250        0.00930       -0.17010
C         -1.37650       -0.52730        0.11820
C         -2.38340       -0.43450       -1.06280
N         -2.11080       -1.85620       -1.37820
C         -1.55730       -2.07840       -0.02780
C         -0.37250       -2.93670        0.03470
N          0.56460       -3.60960        0.10710
H          1.09080        1.89640       -0.36100
H         -0.59420        1.98250       -0.88260
H         -0.20510        1.92890        0.84170
H          0.35660       -0.36290       -1.14580
H          0.72120       -0.39950        0.56950
H         -1.74470       -0.13820        1.07030
H         -3.40910       -0.22850       -0.72830
H         -2.13240        0.25510       -1.87540
H         -2.91010       -2.43090       -1.61990
H         -2.28360       -2.45690        0.70600
