19
gdb 8935	2.69323	1.45092	1.34018	4.7094	68.99	-0.2316	0.0392	0.2707	1053.9676	0.163496	-402.216303	-402.206391	-402.205447	-402.251431	34.151
C          0.15980        1.60270        0.02580
C         -0.04770        0.08130        0.04160
C          0.71410       -0.58700        1.19530
O          0.25930       -0.02470        2.41360
N         -1.45950       -0.31670        0.02280
C         -1.82940       -1.45490       -0.80250
C         -2.38650        0.20660        0.88080
O         -3.53990       -0.16790        0.97240
H          1.21500        1.82450       -0.16180
H         -0.43580        2.06170       -0.76730
H         -0.10660        2.06090        0.97930
H          0.38020       -0.32000       -0.88440
H          0.53660       -1.67190        1.16340
H          1.79450       -0.42000        1.05510
H          0.55660       -0.57730        3.14120
H         -1.28980       -2.36310       -0.50330
H         -2.89860       -1.62320       -0.67770
H         -1.60870       -1.25570       -1.85780
H         -1.97960        1.02590        1.49170
