16
gdb 9619	3.42175	1.4459	1.2051	2.0301	67.75	-0.243	0.0481	0.2911	1015.7605	0.127781	-383.682797	-383.674126	-383.673182	-383.71564	32.321
O         -0.14930        1.45110       -0.27120
C          0.01000        0.07770        0.08760
C         -1.37120       -0.52360        0.03410
O         -2.28410        0.14120        0.85550
C         -1.88470       -1.14210       -1.23640
C         -1.56400       -2.02080       -0.02200
C         -0.45150       -2.92430       -0.03610
C          0.48040       -3.68560       -0.04690
H          0.62790        1.93410        0.02240
H          0.68950       -0.44520       -0.59690
H          0.40610       -0.01790        1.10840
H         -2.16070        1.08030        0.66250
H         -2.93460       -1.00280       -1.46420
H         -1.21980       -1.21320       -2.08930
H         -2.43120       -2.35780        0.53830
H          1.29930       -4.36120       -0.05510
