17
gdb 18252	4.42446	1.66506	1.36621	1.9993	69.69	-0.2293	0.0048	0.2342	930.3627	0.142982	-363.818672	-363.811363	-363.810419	-363.850448	27.462
C          0.04800        1.39330        0.06090
O         -0.18210        0.01470       -0.10730
C          0.58260       -0.57330       -1.14310
C          2.05090       -0.82410       -0.80410
C          2.39870       -2.09720       -0.99020
C          1.21480       -2.91090       -1.40980
N          0.17240       -2.93300       -0.34440
C          0.06780       -1.97290       -1.46510
H          1.07220        1.61370        0.39740
H         -0.13470        1.95510       -0.86990
H         -0.64910        1.74420        0.82590
H          0.50620        0.06160       -2.04510
H          2.70190       -0.04070       -0.43450
H          3.38110       -2.52090       -0.81700
H          1.31140       -3.75990       -2.07750
H         -0.47340       -3.69810       -0.53610
H         -0.74250       -2.08600       -2.17600
