20
gdb 19151	3.16094	1.57118	1.26326	2.9037	74.68	-0.2361	0.0683	0.3044	1047.5082	0.178078	-345.127113	-345.118794	-345.11785	-345.159844	31.681
C          0.08840        1.59940        0.12040
C         -0.03040        0.10470       -0.19260
C         -1.41450       -0.52040       -0.04640
C         -2.49640        0.17750        0.70580
N         -2.55740        0.08110       -0.76390
C         -1.48470       -2.02770       -0.06160
C         -0.38060       -2.89920       -0.53580
N         -0.73030       -2.85350        0.89680
H          1.09300        1.95520       -0.12550
H         -0.61650        2.20300       -0.46240
H         -0.08680        1.80770        1.17960
H          0.31020       -0.07540       -1.22050
H          0.67390       -0.43670        0.45280
H         -3.24480       -0.40900        1.23220
H         -2.28550        1.14250        1.15520
H         -2.28230        0.96890       -1.17810
H         -2.50240       -2.37780       -0.21670
H         -0.61040       -3.83790       -1.03220
H          0.54690       -2.43760       -0.86070
H         -0.05520       -2.27900        1.39730
