17
gdb 17429	2.69014	2.64871	1.86283	1.132	66.67	-0.2385	0.068	0.3064	786.2196	0.142359	-363.796259	-363.789159	-363.788215	-363.827046	28.016
C         -0.00430        1.57250        0.02130
C          0.04370        0.06950        0.05260
C         -1.20480       -0.81590        0.19480
N         -0.36720       -1.90870        0.79520
C          0.93550       -1.85540        0.03740
C          0.66790       -0.89770        1.13910
C          0.88850       -0.73500       -0.99150
O          0.41030       -0.94050       -2.29600
H          1.00050        2.00600        0.06860
H         -0.46940        1.91640       -0.90970
H         -0.58540        1.97670        0.85700
H         -1.89770       -0.45830        0.96120
H         -1.77200       -1.08270       -0.70740
H          1.52930       -2.76020        0.04280
H          1.11110       -0.77090        2.11750
H          1.87670       -0.27680       -1.09680
H         -0.34450       -1.53600       -2.25540
