18
gdb 18764	3.69635	2.28567	1.72213	1.5491	70.94	-0.2274	0.0739	0.3013	804.7179	0.155462	-347.754024	-347.747554	-347.74661	-347.78445	26.154
C          0.01860        1.51020        0.08440
C          1.57940        1.53210       -0.04440
C          1.55130        0.03190        0.17900
O          2.50180       -0.91050       -0.29000
C          2.28290       -1.74510        0.87980
C          1.34450       -0.70100        1.53130
C         -0.17690       -0.85740        1.24590
C          0.00440       -0.04840       -0.06580
H         -0.34470        1.85550        1.05600
H         -0.51670        2.05370       -0.69560
H          1.89000        1.77020       -1.06680
H          2.15660        2.14780        0.65160
H          1.81690       -2.70410        0.61970
H          3.22380       -1.93280        1.40840
H          1.66600       -0.30040        2.49340
H         -0.49780       -1.89420        1.10490
H         -0.83650       -0.39450        1.98630
H         -0.43600       -0.42440       -0.99010
