18
gdb 19213	2.76968	2.64815	2.23493	1.7222	69.87	-0.2286	0.0583	0.2869	754.1674	0.154629	-347.727678	-347.721022	-347.720077	-347.758202	26.91
C         -0.03580        1.53490       -0.31250
C          1.43640        1.65050        0.24990
C          1.37630        0.13500        0.57090
C          0.93750       -0.44830        1.93850
C         -0.53110       -0.54860        1.36380
C         -0.02150        0.01070        0.00340
C          0.63340       -0.95510       -1.00360
O          1.95250       -0.77460       -0.38940
H         -0.77790        2.09900        0.25810
H         -0.15300        1.79170       -1.36880
H          2.19420        1.89790       -0.49600
H          1.55780        2.31460        1.10990
H          1.40850       -1.40730        2.16310
H          1.05860        0.21450        2.79950
H         -0.94940       -1.55810        1.32620
H         -1.25320        0.09940        1.86690
H          0.30600       -2.00120       -0.95150
H          0.63130       -0.63270       -2.05260
