13
gdb 21703	8.47921	1.12233	0.99135	13.7391	75.68	-0.2007	-0.0651	0.1356	1087.7551	0.097134	-390.917001	-390.909674	-390.908729	-390.948937	25.85
N         -0.13970        1.48150       -0.06290
C          0.02170        0.14340       -0.00590
N         -0.95500       -0.71490       -0.00780
H         -1.91880       -0.38430       -0.01260
C         -0.92370       -2.11160       -0.00550
C          0.08930       -3.06410       -0.02600
N         -0.52720       -4.25420       -0.00560
N         -1.85860       -4.02760        0.02490
N         -2.12070       -2.73280        0.02530
H          0.65210        2.07480        0.11330
H         -1.04980        1.90310        0.03350
H          1.03460       -0.23910        0.00690
H          1.16460       -2.96900       -0.05570
