15
gdb 5761	6.12692	1.46283	1.30173	1.1129	68.01	-0.2258	0.0101	0.2359	935.5998	0.120854	-362.68516	-362.678548	-362.677604	-362.716769	24.613
C         -0.11020        1.41860       -0.14780
C          1.28150        0.91170        0.07010
C          0.11940       -0.06540        0.07700
C         -0.29840       -0.66660        1.34730
N         -0.29320       -0.14350        2.53590
C         -0.78780       -1.14610        3.36040
C         -1.06970       -2.23720        2.61430
O         -0.75910       -1.94410        1.31240
H         -0.58240        1.95670        0.66560
H         -0.40400        1.73020       -1.14370
H          1.96110        0.86890       -0.77350
H          1.74400        1.10950        1.02980
H          0.01210       -0.72620       -0.77460
H         -0.90200       -1.00410        4.42340
H         -1.45910       -3.22120        2.80770
