18
gdb 17613	4.028	1.32273	1.13234	3.2581	69.49	-0.2624	-0.025	0.2374	1094.2323	0.152404	-384.952811	-384.944185	-384.943241	-384.98634	31.513
C          0.13860        1.55170        0.08390
C         -0.04430        0.02530        0.03680
O         -1.40640       -0.30450        0.00990
C          0.65700       -0.58220       -1.18050
O         -0.01720       -1.13210       -2.03460
C          2.13230       -0.48590       -1.27390
C          2.86230       -1.62150       -1.98170
C          2.73780       -0.30540       -2.66250
H          1.18920        1.83830        0.18830
H         -0.26510        2.00900       -0.82430
H         -0.41450        1.94640        0.93970
H          0.42920       -0.41150        0.93320
H         -1.53260       -0.77450       -0.83110
H          2.63910       -0.01050       -0.44260
H          3.82220       -1.91430       -1.57260
H          2.23380       -2.43060       -2.33500
H          2.02570       -0.22690       -3.47560
H          3.60860        0.33540       -2.73700
