17
gdb 3347	5.32607	2.62655	1.94183	0.3901	70.63	-0.2207	0.0257	0.2464	697.5146	0.150774	-272.569586	-272.563644	-272.5627	-272.599063	23.76
C          0.02690        1.58060       -0.05310
C          1.58950        1.40240        0.05180
C          1.27720        0.01690        0.56940
C          1.44440       -0.83300        1.57620
C          0.17390       -1.66630        1.74260
C         -0.92260       -0.79740        1.03860
C         -0.11860        0.01630        0.00590
H         -0.37960        2.05820        0.84230
H         -0.35290        2.08920       -0.94260
H          2.05360        1.40260       -0.94060
H          2.14970        2.07910        0.70150
H          2.29210       -0.90440        2.24810
H          0.26380       -2.65570        1.27130
H         -0.06150       -1.85040        2.79670
H         -1.72740       -1.39890        0.60590
H         -1.37390       -0.12440        1.77690
H         -0.19010       -0.39720       -1.00820
