18
gdb 16561	3.08677	2.59233	2.07145	1.3882	71.33	-0.2349	0.022	0.2569	752.9605	0.157805	-347.823999	-347.817927	-347.816983	-347.853816	25.28
C         -0.02580        1.55290       -0.03990
O          1.34200        1.96790        0.03940
C          2.19230        0.81460       -0.05580
C          1.31790       -0.24120       -0.74140
C          0.01790        0.01320        0.04630
C          0.22990       -0.42940        1.48070
C          1.41590       -0.27270        2.07130
C          2.59110        0.35000        1.35610
H         -0.58800        2.01300        0.77960
H         -0.46240        1.88500       -0.99380
H          3.07540        1.10290       -0.63360
H          1.19530       -0.01640       -1.80530
H          1.69630       -1.25940       -0.62950
H         -0.86670       -0.44900       -0.39670
H         -0.61000       -0.85700        2.02080
H          1.56580       -0.59040        3.10010
H          3.43100       -0.35890        1.30420
H          2.96010        1.21930        1.91510
