17
gdb 13517	3.0008	1.88637	1.43211	2.6686	63.71	-0.2349	0.0274	0.2624	913.2487	0.142037	-401.019483	-401.011134	-401.01019	-401.052783	30.15
C          0.69070        1.69550       -0.29430
C          0.22660        0.24790       -0.23490
C          1.29790       -0.85680       -0.38140
O          0.99150       -1.40220        0.92490
C         -0.02080       -0.39650        1.16140
C          0.24170        0.48380        2.37870
N          1.40010        0.19870        3.02470
O         -0.53720        1.36550        2.69100
H          1.57610        1.85510        0.32970
H          0.94760        1.97350       -1.32180
H         -0.09220        2.36970        0.06230
H         -0.62520        0.09740       -0.90190
H          1.13000       -1.59490       -1.17340
H          2.33340       -0.49810       -0.43800
H         -1.01420       -0.84150        1.28700
H          1.93380       -0.60370        2.73190
H          1.61730        0.67920        3.88160
