16
gdb 9740	3.15806	1.85666	1.58966	2.327	60.47	-0.2488	-0.0321	0.2166	863.2875	0.128941	-420.884193	-420.876207	-420.875263	-420.917078	28.193
C         -0.02670        1.64550        0.25200
C          0.05330        0.12880        0.08130
C          0.76580       -0.33910       -1.20000
O          1.41590       -1.53100       -0.78400
C          1.83450       -1.26380        0.52620
O          0.83330       -0.45840        1.13220
C         -1.35580       -0.46540        0.18430
O         -2.10880       -0.58830       -0.74500
H          0.97940        2.07390        0.25220
H         -0.60590        2.08900       -0.56360
H         -0.50870        1.90470        1.19920
H          0.06540       -0.57430       -2.00190
H          1.49250        0.41310       -1.54250
H          1.93160       -2.20880        1.06920
H          2.79530       -0.71920        0.53420
H         -1.62770       -0.76830        1.21940
