16
gdb 5542	3.13857	2.00244	1.27787	1.0211	68.14	-0.197	0.0319	0.2289	950.4123	0.129798	-383.762448	-383.754316	-383.753372	-383.795651	28.684
C          0.12230        1.32470        0.04250
O         -0.41460        0.07620       -0.40330
C          0.35040       -0.61780       -1.25680
C          0.66860       -1.94070       -1.28190
C          0.29200       -2.97290       -0.26660
C          1.43320       -2.10830       -2.49290
C          1.52060       -0.89130       -3.08110
O          0.85190        0.04320       -2.33640
H          1.08960        1.17730        0.53760
H          0.24420        2.02180       -0.79170
H         -0.59870        1.72740        0.75530
H         -0.36390       -3.74200       -0.69130
H          1.17360       -3.48690        0.13350
H         -0.23760       -2.50910        0.56950
H          1.86450       -3.02740       -2.85980
H          1.99830       -0.52040       -3.97190
