15
gdb 1554	5.77781	1.29152	1.10745	0.4306	59.31	-0.2652	0.0309	0.2962	1018.4298	0.122288	-345.605387	-345.596848	-345.595904	-345.638373	29.818
O         -0.06510        1.45210       -0.03010
C          0.03000        0.03680        0.03060
C         -1.38720       -0.51950       -0.02830
C         -1.41420       -2.05670        0.02630
O         -0.77020       -2.56380        1.19550
C         -2.78280       -2.56690       -0.09670
C         -3.91570       -2.96500       -0.15350
H          0.81980        1.81530        0.06730
H          0.61820       -0.36110       -0.81360
H          0.51740       -0.30020        0.95540
H         -1.97200       -0.11510        0.80640
H         -1.87380       -0.18230       -0.94980
H         -0.81470       -2.44930       -0.80520
H         -1.36040       -2.40350        1.94070
H         -4.91090       -3.33050       -0.21770
