20
gdb 13410	4.4601	1.15134	1.08355	1.7659	71.85	-0.2421	0.0846	0.3267	1190.5423	0.177122	-386.139264	-386.130633	-386.129688	-386.173501	30.73
C          0.40730        1.51470       -0.35200
C          0.26440        0.02970       -0.06310
O          0.58000       -0.68600       -1.24140
C          0.44730       -2.09400       -1.13140
C          0.52780       -2.67650       -2.54690
C          2.03950       -2.80890       -2.73470
O          2.53010       -3.23480       -1.46720
C          1.66480       -2.75290       -0.44150
H          1.43270        1.74960       -0.65120
H         -0.26270        1.81360       -1.16300
H          0.16180        2.10180        0.53800
H          0.92950       -0.26180        0.76580
H         -0.76550       -0.20740        0.25440
H         -0.49420       -2.33900       -0.61930
H          0.05360       -3.66240       -2.57340
H          0.04200       -2.02360       -3.27390
H          2.33140       -3.55720       -3.47710
H          2.47910       -1.84140       -3.01990
H          2.19190       -2.02480        0.18870
H          1.36670       -3.59980        0.19000
