16
gdb 13920	3.54725	1.79735	1.46886	3.1724	64.87	-0.2433	-0.0338	0.2095	882.1565	0.129835	-383.721169	-383.713676	-383.712732	-383.754727	26.714
O         -0.09460        0.08300       -0.38620
C         -0.09450        1.23980       -0.07860
C         -1.15960        2.22010        0.43950
C         -0.05500        3.32360        0.46630
C          1.00180        2.31310       -0.05810
C          2.35520        2.03690        0.63660
O          3.09420        2.27770       -0.57370
C          1.88580        2.55320       -1.30380
H         -1.98580        2.38360       -0.25840
H         -1.58320        1.94000        1.40840
H         -0.23920        4.16290       -0.20790
H          0.16420        3.71860        1.46080
H          2.61390        2.74810        1.43180
H          2.48530        1.01090        1.00180
H          1.72900        1.84290       -2.12460
H          1.85810        3.57960       -1.69250
