18
gdb 19164	4.14392	1.44217	1.25169	3.6591	67.39	-0.2339	0.057	0.2908	1002.4607	0.154363	-381.052592	-381.044307	-381.043363	-381.085749	30.431
O         -0.34930        1.73270       -0.38810
C         -0.11050        0.38810       -0.77430
C         -1.13770       -0.51170       -0.10540
C         -1.61710       -0.14300        1.24810
N         -2.50080        0.01390        0.07470
C         -1.02110       -1.94470       -0.55400
C         -0.45800       -2.98080        0.35500
N         -1.88200       -2.99060       -0.00690
H          0.23950        2.30360       -0.88850
H         -0.19670        0.27360       -1.86690
H          0.90120        0.06070       -0.48740
H         -1.92460       -0.90830        1.95730
H         -1.19580        0.74990        1.69840
H         -2.50540        0.99670       -0.19240
H         -0.84760       -2.05270       -1.62480
H          0.12240       -3.80830       -0.04390
H         -0.16980       -2.66170        1.35360
H         -2.46090       -2.61230        0.73860
