14
gdb 21800	6.11471	1.19285	1.08325	4.049	64.25	-0.2412	-0.0215	0.2197	1043.8208	0.108303	-378.752228	-378.745037	-378.744093	-378.785204	25.245
O         -0.29300        1.03710        1.13260
C          0.06570        1.21780       -0.00110
C          1.46290        1.66420       -0.40730
C          1.41290        2.85740       -1.31450
N          1.58350        2.71630       -2.62930
N          1.43780        3.95990       -3.12300
C          1.18060        4.88610       -2.16890
C          1.15130        4.20640       -0.97120
H         -0.62510        1.06820       -0.86150
H          2.04050        1.85790        0.50030
H          1.92880        0.83520       -0.95420
H          1.54070        4.10520       -4.11290
H          1.04410        5.92820       -2.41090
H          0.97260        4.61800        0.00890
