18
gdb 8670	2.40382	1.72337	1.42332	1.6239	69.35	-0.2566	0.0394	0.296	983.8665	0.151235	-384.899453	-384.889924	-384.88898	-384.933488	34.942
C          0.01020        1.59260       -0.01370
C          0.00320        0.05160       -0.01320
C          0.70730       -0.45510        1.27120
O          0.54650       -1.84800        1.47490
C         -1.46280       -0.48270       -0.04040
O         -2.14080       -0.25350        1.17860
C          0.70580       -0.48740       -1.17830
C          1.27700       -0.98270       -2.11500
H          1.01960        1.98620        0.13900
H         -0.36340        1.98080       -0.96480
H         -0.63700        1.95590        0.78950
H          1.76740       -0.16770        1.24040
H          0.24840        0.03250        2.13540
H          0.93690       -2.29530        0.71440
H         -2.01870        0.04570       -0.82130
H         -1.45270       -1.54780       -0.29660
H         -1.84560       -0.93670        1.79070
H          1.77920       -1.39450       -2.95540
