17
gdb 6815	3.14395	1.69363	1.44726	2.8588	68.38	-0.2657	0.0163	0.2819	932.5865	0.140836	-363.870128	-363.861755	-363.860811	-363.902879	30.492
C         -0.18290        1.54000        0.01810
C         -0.02580        0.02680        0.02010
C         -1.29380       -0.69680       -0.40110
O          1.10270       -0.37630       -0.81000
C          1.88760       -0.77220        0.32190
C          0.68830       -0.58050        1.28440
C          0.87910        0.25590        2.45340
N          1.03540        0.93040        3.37960
H          0.74130        2.03600        0.32440
H         -0.43540        1.87540       -0.99210
H         -0.98070        1.85300        0.69870
H         -1.59210       -0.37550       -1.40380
H         -1.13560       -1.77850       -0.42350
H         -2.11420       -0.47370        0.28890
H          2.26290       -1.79670        0.23460
H          2.72600       -0.09200        0.51170
H          0.23640       -1.52710        1.58870
