14
gdb 4800	6.93423	1.3642	1.14968	2.2661	60.56	-0.1912	0.0372	0.2284	993.9115	0.107863	-415.878365	-415.870753	-415.869809	-415.910336	27.372
C         -0.09990        1.37280        0.01900
O         -0.05370       -0.05590       -0.01550
C         -1.21330       -0.69820       -0.01680
N         -1.35160       -1.98490       -0.05090
C         -2.73140       -2.16370       -0.03180
N         -3.24730       -3.44910       -0.12480
C         -3.35370       -0.95860        0.01790
O         -2.34760        0.01530        0.02540
H          0.94020        1.69760        0.01270
H         -0.62220        1.76920       -0.85670
H         -0.59840        1.72730        0.92600
H         -2.58720       -4.13870        0.20830
H         -4.15190       -3.56670        0.30890
H         -4.36630       -0.60220        0.03720
