19
gdb 13108	3.97154	1.18363	0.97734	2.3525	72.9	-0.2616	0.0279	0.2894	1228.1107	0.165634	-365.070343	-365.061824	-365.06088	-365.103919	30.729
C         -0.08400        1.54840       -0.07960
C         -0.03890        0.02040       -0.00180
C          0.79610       -0.48770        1.18010
C          0.81300       -2.01210        1.28620
C          1.45370       -2.65600        2.53710
O          0.17110       -3.26110        2.89380
C         -0.44750       -2.68490        1.80350
N         -1.64580       -2.72380        1.43400
H          0.92070        1.97350       -0.18520
H         -0.67880        1.88420       -0.93440
H         -0.53080        1.97740        0.82430
H         -1.05330       -0.38430        0.08150
H          0.37730       -0.38390       -0.93420
H          1.83030       -0.12910        1.08690
H          0.40540       -0.06580        2.11570
H          1.16040       -2.45770        0.34890
H          2.21370       -3.42190        2.36610
H          1.78220       -1.95880        3.31300
H         -2.21520       -3.28150        2.07310
