18
gdb 17664	3.96855	1.49336	1.437	0.7725	67.56	-0.2514	0.0612	0.3126	953.0774	0.153158	-384.898622	-384.890683	-384.889739	-384.931102	29.823
O         -0.14320        1.46960       -0.17600
C          0.01550        0.07640       -0.07280
C          1.08620       -0.59780       -0.97610
O          1.67150       -1.26200        0.16080
C          0.90200       -0.46630        1.08330
C         -1.34650       -0.56790       -0.15360
C         -2.55520        0.09410        0.45550
C         -2.42080       -0.00180       -1.04560
H          0.72490        1.88150       -0.12360
H          0.73570       -1.30200       -1.73850
H          1.77830        0.12250       -1.43920
H          1.50930        0.31440        1.56680
H          0.41420       -1.07250        1.85440
H         -1.29540       -1.65030       -0.07980
H         -3.28520       -0.53440        0.95330
H         -2.41420        1.07190        0.90010
H         -2.19230        0.91360       -1.57800
H         -3.05830       -0.69630       -1.58130
