18
gdb 18721	3.18702	2.17076	1.4914	1.0967	66.96	-0.2503	0.0799	0.3302	876.6638	0.155061	-384.928349	-384.921123	-384.920179	-384.959599	27.877
C         -0.05140        1.52990        0.03640
C          0.03370       -0.00030        0.00190
C          0.74440       -0.50190       -1.26460
O          0.90110       -1.91000       -1.24510
C          1.83020       -2.34860       -0.27120
C          1.63710       -1.70540        1.09110
O          2.16420       -0.37920        1.25150
C          0.74170       -0.54750        1.22500
H          0.94960        1.97120        0.07820
H         -0.55840        1.91710       -0.85350
H         -0.60740        1.87540        0.91380
H         -0.98080       -0.42180        0.00380
H          0.14650       -0.27160       -2.15110
H          1.72020       -0.00240       -1.36650
H          1.69320       -3.43150       -0.18970
H          2.86400       -2.16010       -0.60600
H          1.80700       -2.35230        1.95180
H          0.25260       -0.36710        2.18380
