17
gdb 18674	3.0573	2.2365	1.51793	3.3017	68.03	-0.2327	-0.0125	0.2202	852.3817	0.144919	-363.872877	-363.866092	-363.865148	-363.903843	26.508
O          0.03230       -0.00230       -0.41570
C          0.00810        1.17050       -0.11460
C         -1.26790        1.95090        0.14220
C         -1.30110        3.18260       -0.78840
C         -0.14510        4.16120       -0.51280
C          1.18720        3.47180       -0.23700
N          1.34800        2.91860        1.10650
C          1.26440        1.98370       -0.04410
H         -2.11790        1.28790       -0.03230
H         -1.28040        2.27770        1.18850
H         -1.24450        2.83460       -1.82740
H         -2.25990        3.70100       -0.68750
H         -0.03150        4.83760       -1.36650
H         -0.38330        4.78440        0.35670
H          2.06330        3.92970       -0.69130
H          2.31570        2.98100        1.41170
H          2.16020        1.45310       -0.35320
