12
gdb 577	11.77386	2.11484	1.92267	4.358	50.95	-0.2611	0.0199	0.281	625.5614	0.096776	-265.386781	-265.380879	-265.379935	-265.416377	20.445
N          0.06250       -1.06640       -0.33190
C          0.03950        0.04910       -0.03450
C         -0.01070        1.47020        0.32870
N          1.30930        2.08120        0.23530
C          1.68540        2.59190       -1.08160
C          1.31180        3.52620        0.01540
H         -0.76570        1.95820       -0.31360
H         -0.36490        1.55350        1.36260
H          2.72520        2.44660       -1.35590
H          0.97600        2.47200       -1.89850
H          0.35170        4.03320       -0.06800
H          2.07270        4.07740        0.55890
