22
gdb 14796	11.80664	0.51941	0.50695	0.4688	76.99	-0.249	0.0799	0.3289	2186.0127	0.197962	-387.333126	-387.322446	-387.321501	-387.369893	36.215
C         -0.08420        1.51530        0.01140
C         -0.02610       -0.00300        0.00250
O         -1.34530       -0.50580        0.01230
C         -1.40690       -1.91500        0.00520
C         -2.86870       -2.34110        0.01680
C         -3.03600       -3.86250        0.01020
C         -4.49620       -4.29390        0.02160
O         -4.53330       -5.71330        0.01410
H          0.92570        1.93630        0.00410
H         -0.62090        1.88370       -0.86750
H         -0.60400        1.87390        0.90440
H          0.51300       -0.36410       -0.89060
H          0.52990       -0.37390        0.88100
H         -0.89750       -2.31790       -0.88810
H         -0.88060       -2.32760        0.88410
H         -3.34930       -1.90840        0.90290
H         -3.36610       -1.89880       -0.85510
H         -2.55530       -4.29570       -0.87570
H         -2.53870       -4.30520        0.88210
H         -4.99670       -3.88630        0.91550
H         -5.01350       -3.87650       -0.85800
H         -5.45420       -5.98960        0.02220
