13
gdb 21557	4.15564	1.91472	1.31162	1.6512	67.37	-0.2121	-0.0579	0.1542	859.852	0.097886	-390.947071	-390.940375	-390.939431	-390.977691	25.881
N          0.03910        1.34520        0.14470
C         -0.06470       -0.01560        0.05670
C         -1.23160       -0.71730        0.03730
C         -1.19270       -2.15200       -0.00020
N         -2.22310       -2.91350       -0.01820
N          0.14500       -2.61700       -0.01700
N          1.26770       -1.89380       -0.01240
N          1.19620       -0.63030        0.02530
H          0.94020        1.72480       -0.09980
H         -0.76040        1.90300       -0.10440
H         -2.20200       -0.23770        0.05460
H         -1.96850       -3.90130       -0.04560
H          0.32210       -3.61130       -0.04980
