24
gdb 8947	3.65085	1.04591	0.86664	1.3036	81.8	-0.2617	0.0793	0.341	1410.9719	0.221258	-351.410262	-351.39935	-351.398406	-351.446793	39.176
C         -0.06990        1.55620       -0.10360
C         -0.09570        0.03230        0.06250
C          0.72120       -0.50410        1.25890
C          0.06990       -0.07170        2.58430
C          0.92000       -2.04140        1.15560
C          1.79410       -2.43980       -0.04560
C          1.51940       -2.63920        2.43470
O          1.64250       -4.04620        2.25850
H          0.95750        1.92340       -0.20710
H         -0.61950        1.85670       -1.00140
H         -0.52440        2.07850        0.74350
H         -1.13520       -0.30900        0.16600
H          0.27690       -0.41410       -0.86400
H          1.72060       -0.04400        1.21040
H          0.70980       -0.27150        3.44780
H         -0.14010        1.00120        2.58820
H         -0.88160       -0.59380        2.74370
H         -0.07060       -2.50380        1.03150
H          2.76950       -1.93940        0.00430
H          1.97020       -3.51670       -0.04010
H          1.33400       -2.17820       -1.00130
H          2.50330       -2.17770        2.62980
H          0.87590       -2.42330        3.29700
H          2.00300       -4.41700        3.06860
