16
gdb 10323	2.65015	1.94198	1.22149	1.3957	62.92	-0.2702	-0.0168	0.2534	979.9292	0.130321	-417.135178	-417.126632	-417.125688	-417.168496	30.508
C         -0.41250        0.88900        0.52640
C          0.30230       -0.39900        0.12070
N          0.73690       -0.39760       -1.28620
C          2.04120       -0.09070       -1.57830
O          2.55180       -0.02300       -2.68100
C         -0.27990       -0.70820       -2.25300
N          0.12610       -0.68920       -3.53880
O         -1.40640       -0.96480       -1.87710
H          0.23670        1.76080        0.39620
H         -1.31280        1.02540       -0.07600
H         -0.70660        0.83670        1.57930
H          1.19380       -0.55800        0.73410
H         -0.35860       -1.25560        0.25550
H          2.62690        0.09890       -0.66180
H          1.08480       -0.45980       -3.76850
H         -0.56850       -0.89850       -4.23420
