17
gdb 12052	3.57649	1.84301	1.56802	2.7527	68.09	-0.2437	-0.0247	0.219	866.9394	0.14114	-363.82503	-363.81739	-363.816446	-363.856889	28.758
C         -0.11470        1.69630        0.24950
C          0.02510        0.18600        0.09700
C          0.96560       -0.41660       -0.97620
C          1.67270       -1.12600        0.17630
C          2.16010       -0.16190        1.17860
N          0.73490       -0.54540        1.22620
C         -1.37130       -0.42530        0.07320
O         -1.86400       -1.00670       -0.85680
H          0.85750        2.18400        0.35380
H         -0.60920        2.12200       -0.63010
H         -0.71320        1.94240        1.13350
H          0.42430       -1.07580       -1.65550
H          1.57670        0.28130       -1.55500
H          1.94860       -2.17500        0.19430
H          2.71360       -0.54800        2.02920
H          2.44710        0.84170        0.87570
H         -1.91670       -0.28640        1.03300
