18
gdb 12125	3.96624	1.684	1.6577	1.9328	71.59	-0.221	0.0729	0.294	898.1747	0.152031	-347.739567	-347.731892	-347.730948	-347.770868	30.16
C         -0.07500        1.54090        0.00460
C          0.01050        0.04350        0.01210
C         -0.86220       -0.87470        0.82350
C          0.63220       -0.89830        1.03920
C          1.37320       -1.64210       -0.12370
C          2.69670       -2.32390       -0.03290
O          0.38880       -2.15110       -1.04290
C          0.75330       -0.76170       -1.10980
H          0.89230        1.99920       -0.23450
H         -0.80140        1.89670       -0.73690
H         -0.38800        1.92010        0.98260
H         -1.42180       -0.38160        1.61320
H         -1.35870       -1.72050        0.36490
H          1.10080       -0.64540        1.98220
H          2.62140       -3.24160        0.56200
H          3.05870       -2.58900       -1.02970
H          3.43400       -1.67300        0.44870
H          1.09790       -0.37890       -2.06460
