18
gdb 13799	3.57766	1.36108	1.25459	2.8099	69.81	-0.2397	-0.0071	0.2326	1072.2205	0.150964	-384.935122	-384.926015	-384.925071	-384.969537	31.835
C          0.14600        1.35000        0.06610
O         -0.44810        0.24200       -0.58260
C          0.44650       -0.48700       -1.34860
C          1.39590       -1.45350       -0.71340
C          0.19600       -1.97860       -1.48050
C         -0.93100       -2.58300       -0.69050
C         -2.03380       -3.22330       -1.51270
O         -0.96360       -2.55300        0.51860
H          0.94450        1.03630        0.75210
H          0.56750        2.06450       -0.65740
H         -0.64320        1.84510        0.63560
H          0.77970        0.02420       -2.25450
H          2.38470       -1.58410       -1.13780
H          1.31050       -1.58140        0.36060
H          0.34200       -2.38890       -2.47450
H         -1.62920       -4.04160       -2.11980
H         -2.81470       -3.60580       -0.85480
H         -2.45820       -2.49000       -2.20790
