17
gdb 15811	5.77803	1.02941	0.93429	2.1398	66.6	-0.2637	0.0163	0.28	1258.0173	0.141082	-400.984661	-400.976131	-400.975187	-401.01842	29.878
C         -0.16460        1.47110        0.35590
C         -0.03220       -0.00900        0.05280
O          0.72880       -0.60350        1.11880
C          0.96300       -1.92270        1.02250
N          0.55260       -2.63820        0.06070
C          1.75310       -2.38990        2.20950
C          1.18980       -3.40240        3.12010
O          2.18720       -3.74340        2.15830
H          0.81800        1.94810        0.41350
H         -0.73970        1.96150       -0.43510
H         -0.68070        1.63130        1.30690
H         -1.00560       -0.50670       -0.00870
H          0.48390       -0.19260       -0.89520
H          0.88060       -3.59470        0.19940
H          2.47410       -1.67610        2.60360
H          1.51120       -3.42750        4.15970
H          0.19540       -3.79550        2.91780
