13
gdb 1156	3.37268	2.28179	1.89625	2.6809	59.91	-0.2758	0.0038	0.2797	730.7362	0.099999	-303.465315	-303.457504	-303.45656	-303.496644	28.245
C         -0.01070        1.54600        0.01180
C         -0.00160        0.00050        0.01900
N          0.69190       -0.45890        1.23260
C         -1.37490       -0.51990        0.02570
C         -2.50050       -0.93570        0.03350
C          0.67740       -0.47980       -1.21890
N          1.26090       -0.85440       -2.14400
H          1.01610        1.92230       -0.00350
H         -0.53660        1.92440       -0.86630
H         -0.50880        1.89270        0.91860
H          0.68270       -1.47410        1.27100
H          1.66630       -0.17110        1.18960
H         -3.49560       -1.30790        0.03840
