17
gdb 5068	3.24269	1.95737	1.24037	1.0247	71.9	-0.1692	0.0618	0.231	961.5385	0.143053	-360.072531	-360.063561	-360.062617	-360.105889	32.521
C          0.02270        1.52400        0.02150
C          0.01760        0.02750        0.01000
C         -0.00750       -0.79820       -1.10060
N         -0.00550       -0.54920       -2.49570
N         -0.03850       -2.09500       -0.66500
C         -0.02150       -2.13100        0.71360
C          0.01020       -0.82620        1.15680
N         -0.05410       -0.36510        2.49080
H          0.96370        1.94260        0.40550
H         -0.11520        1.92250       -0.98880
H         -0.78150        1.92490        0.65040
H         -0.87210       -0.12010       -2.80650
H          0.74780        0.07580       -2.76180
H         -0.03280       -2.88370       -1.28680
H         -0.04660       -3.06230        1.25560
H          0.14660       -1.10250        3.15560
H          0.59570        0.39460        2.65890
