10
gdb 919	6.13696	3.00966	2.01934	3.1519	51.37	-0.2666	-0.0812	0.1854	572.3677	0.068918	-355.516778	-355.511553	-355.510609	-355.54606	18.636
N         -0.03160        1.31600        0.00960
C         -0.05250        0.05820        0.00350
O          1.18720       -0.66640       -0.00760
C          1.14490       -1.99670       -0.01430
N          0.08890       -2.72200       -0.01170
C         -1.08880       -1.98180       -0.00120
N         -1.20580       -0.70030        0.00620
H          0.92530        1.66610        0.00570
H          2.14030       -2.43520       -0.02220
H         -2.00080       -2.57440        0.00150
