6
gdb 779	10.34972	4.18995	2.98252	1.0079	30.02	-0.3348	-0.088	0.2469	377.0208	0.025718	-373.17391	-373.16979	-373.168845	-373.201448	13.622
O          0.00250       -0.03480        0.00290
C         -0.01350        1.14600        0.00940
O         -1.11620        1.96450        0.02800
N         -0.66080        3.27640        0.02920
N          0.57580        3.29330        0.01310
O          1.06660        1.99430       -0.00000
