16
gdb 19958	3.97527	1.50644	1.1605	3.0755	65.96	-0.241	0.0282	0.2692	1002.0357	0.131805	-379.909102	-379.901545	-379.900601	-379.941748	27.218
O         -0.25730        0.00180        0.12260
C         -0.13780        1.19490        0.06610
N         -1.03860        2.22750       -0.01690
C         -0.05020        3.30850       -0.01270
C          1.05350        2.20450        0.06580
C          1.93880        2.18420        1.27930
C          3.21110        1.42370        1.26390
N          3.22930        2.89770        1.28770
H         -2.04680        2.23210       -0.05780
H         -0.04320        3.91630       -0.92290
H         -0.10180        3.96080        0.86490
H          1.64790        2.12550       -0.85020
H          1.40510        2.26180        2.22530
H          3.56810        0.94530        2.17070
H          3.48210        0.90970        0.34530
H          3.43290        3.25230        0.35550
