17
gdb 9376	2.7464	1.69072	1.15779	3.1141	65.41	-0.2615	0.0144	0.2758	1044.7043	0.140227	-400.997799	-400.988621	-400.987676	-401.032018	32.096
C         -0.16450        1.45970        0.53350
C          0.09460        0.19100       -0.28100
O          0.20790        0.55160       -1.64160
C         -0.24780       -0.39680       -2.60340
C          0.69020       -1.57520       -2.85120
O          0.64700       -2.52970       -1.80290
C          1.33400       -0.47820        0.18370
N          2.31050       -1.00080        0.51710
H          0.63830        2.18160        0.36670
H         -1.10950        1.90190        0.21070
H         -0.21910        1.23060        1.60090
H         -0.72630       -0.52560       -0.13830
H         -1.23690       -0.78260       -2.31420
H         -0.35820        0.17770       -3.52930
H          0.35840       -2.07530       -3.77140
H          1.70760       -1.20220       -3.02520
H          1.41060       -2.39990       -1.23140
