15
gdb 20439	4.85861	2.09722	1.51699	5.3485	66.06	-0.2462	0.0099	0.2561	799.1679	0.123406	-358.855465	-358.849531	-358.848587	-358.885577	22.68
C          0.01230        1.53070       -0.04370
C          1.51840        1.89800        0.02430
N          2.06970        0.69980        0.63950
N          3.27110        0.44010        1.16930
N          3.24400       -0.82060        1.52880
C          2.02820       -1.36050        1.21740
C          1.25680       -0.37960        0.63800
C         -0.04960       -0.02990       -0.00600
H         -0.49610        1.93450        0.83590
H         -0.47160        1.94980       -0.92760
H          1.96130        2.04880       -0.96620
H          1.72570        2.77960        0.63360
H          1.80000       -2.39090        1.43480
H         -0.91880       -0.39190        0.54840
H         -0.11370       -0.45170       -1.01600
