17
gdb 2952	5.3206	1.8679	1.5951	1.7937	59.79	-0.2474	0.076	0.3234	805.2617	0.149763	-346.852204	-346.844984	-346.844039	-346.883995	25.963
O          0.09380        1.31140        0.25680
C         -0.00940       -0.10180        0.16050
C         -1.46650       -0.45320       -0.12470
C         -1.66490       -1.98790       -0.25790
C         -2.50370       -2.35820        0.98920
O         -2.37580       -1.26610        1.88630
C         -2.36930       -0.10170        1.07350
H          0.98160        1.53050        0.55340
H          0.63110       -0.49310       -0.64620
H          0.29760       -0.59230        1.09820
H         -1.77830        0.08330       -1.02520
H         -2.17600       -2.26050       -1.18410
H         -0.70080       -2.50650       -0.25470
H         -3.56060       -2.50400        0.71200
H         -2.15890       -3.25930        1.50300
H         -1.98660        0.73270        1.66420
H         -3.39030        0.14100        0.73560
