14
gdb 10242	2.48448	1.87158	1.20389	1.4723	65.46	-0.2561	-0.0594	0.1967	982.1708	0.102314	-382.528456	-382.519515	-382.518571	-382.562527	30.59
C          0.03990        1.48610       -0.16350
C         -0.09340       -0.00550        0.03480
O         -0.13760       -0.54710        1.10570
C         -0.15230       -0.83190       -1.29590
C          1.30150       -0.96030       -1.79890
O          1.89100       -0.06610       -2.34230
C         -0.77090       -2.13270       -1.13160
C         -1.24620       -3.22940       -1.01590
H          0.78890        1.70540       -0.93020
H         -0.91620        1.88450       -0.52430
H          0.29500        1.96580        0.78190
H         -0.67980       -0.22330       -2.03910
H          1.76640       -1.94500       -1.59300
H         -1.68290       -4.19100       -0.90250
