12
gdb 4425	4.15642	2.03038	1.36405	3.2243	60.05	-0.2345	-0.0423	0.1922	814.8301	0.087606	-410.900176	-410.894074	-410.89313	-410.930527	23.053
O         -0.09420        1.29770        0.01080
C          0.02930       -0.02710        0.00250
N          1.20460       -0.59210       -0.00720
C          1.14790       -1.96330       -0.01480
N          0.10170       -2.72970       -0.01360
C         -1.14810       -2.12170       -0.00330
N         -2.28820       -2.68490       -0.00030
N         -1.12640       -0.70330        0.00480
H          0.80700        1.65310        0.00790
H          2.11990       -2.45310       -0.02290
H         -2.15250       -3.69440       -0.00690
H         -2.01460       -0.22080        0.01240
