17
gdb 15624	3.44386	1.7577	1.2744	2.8951	73.09	-0.2417	-0.0228	0.2188	977.1992	0.143267	-363.897892	-363.890221	-363.889277	-363.930059	28.372
C         -0.20120        1.53290       -0.04190
C          0.07980        0.02100        0.02600
C          0.77490       -0.49480       -1.19500
C          2.02700       -0.93300       -1.35460
C          2.24460       -1.33680       -2.78130
O          0.99080       -1.08780       -3.42400
C          0.09860       -0.59420       -2.50590
N         -1.10540       -0.28630       -2.75420
H          0.73020        2.10210       -0.12560
H         -0.82720        1.76270       -0.90680
H         -0.72220        1.86440        0.86120
H          0.68170       -0.21130        0.91100
H         -0.87400       -0.50880        0.12980
H          2.79630       -1.00520       -0.59640
H          3.02670       -0.75020       -3.28220
H          2.50010       -2.39910       -2.89480
H         -1.32800       -0.45750       -3.73560
