20
gdb 8204	2.6646	2.32483	1.60361	1.6522	74.64	-0.2462	0.083	0.3292	897.9451	0.177345	-349.009195	-349.001193	-349.000248	-349.040791	31.201
C         -0.03000        1.51410       -0.03380
C          0.00580        0.00780        0.02600
C          1.27080       -0.76940       -0.26110
C          0.66970       -0.80390        1.12610
C          1.38820       -0.21990        2.31620
C         -0.26700       -1.98050        1.36060
O         -1.09140       -2.07020        0.20470
C         -1.27070       -0.75320       -0.30260
H          0.90880        1.95360        0.31560
H         -0.18950        1.86460       -1.06040
H         -0.84000        1.92050        0.58340
H          1.20810       -1.65980       -0.88020
H          2.18250       -0.19330       -0.38620
H          1.95300        0.67700        2.04560
H          0.68660        0.05400        3.11310
H          2.10220       -0.93760        2.73730
H          0.24240       -2.94430        1.47340
H         -0.86890       -1.80090        2.26870
H         -2.13330       -0.25480        0.17340
H         -1.47680       -0.84230       -1.37530
