19
gdb 17670	3.85278	1.50996	1.31309	0.909	71.67	-0.2178	0.0774	0.2952	997.9099	0.163933	-365.007055	-364.99858	-364.997635	-365.039596	32.342
C          0.22080        1.36820       -0.38880
C          0.17210       -0.09190        0.00510
C          1.48510       -0.87150       -0.00690
C          0.82250       -0.51740        1.29590
O          1.48810        0.40600        2.10870
N         -1.10510       -0.68270       -0.34170
C         -1.24680       -1.28100       -1.66760
C         -1.26400       -2.12670       -0.44310
H          1.11500        1.84880        0.01280
H          0.22610        1.47790       -1.47860
H         -0.66240        1.89020       -0.00600
H          1.51440       -1.91480       -0.30190
H          2.37690       -0.31030       -0.26400
H          0.33660       -1.33410        1.83150
H          0.82310        0.90520        2.59520
H         -2.16610       -1.04980       -2.19790
H         -0.35670       -1.34310       -2.29110
H         -0.40670       -2.77420       -0.27510
H         -2.20040       -2.51540       -0.05250
