11
gdb 343	8.69706	2.39967	1.90493	5.1006	50.92	-0.2622	-0.0399	0.2223	616.0271	0.084203	-281.480993	-281.474271	-281.473326	-281.51108	22.896
C          0.03830        1.43290        0.01010
N          0.04130       -0.01840        0.01950
C         -1.08920       -0.60620       -0.00490
N         -2.34770       -0.04340       -0.07980
C         -1.10080       -2.05880       -0.00380
N         -1.15000       -3.21330        0.00610
H          1.06750        1.79580        0.03230
H         -0.44770        1.83770       -0.89060
H         -0.48210        1.85480        0.88560
H         -2.43850        0.92600        0.17860
H         -3.13840       -0.62480        0.14740
