12
gdb 21573	7.75241	1.26819	1.09083	6.371	59.97	-0.2343	-0.0646	0.1697	988.7487	0.0837	-414.656944	-414.649902	-414.648958	-414.688346	25.263
N          0.02180        1.38210        0.15510
C         -0.08390        0.02100        0.05540
C         -1.13790       -0.85120        0.03540
C         -0.50060       -2.12070       -0.00300
C         -1.18480       -3.43820       -0.03640
O         -0.63540       -4.50830       -0.07300
N          0.81430       -2.03280       -0.00790
O          1.07370       -0.65920        0.02790
H          0.90640        1.76120       -0.15080
H         -0.77440        1.90440       -0.17580
H         -2.19140       -0.62990        0.05270
H         -2.29420       -3.35260       -0.02500
