14
gdb 9815	3.70362	1.70744	1.29222	2.4771	66.11	-0.2562	-0.0631	0.1932	918.9089	0.10398	-382.499752	-382.491556	-382.490612	-382.532508	29.885
O         -0.00840        1.40160       -0.00040
C          0.00470        0.00840        0.00870
C         -0.51020       -0.73160        1.24080
C         -1.34990       -0.65620        0.00280
C          1.09600       -0.67430       -0.75760
O          1.14300       -1.87990       -0.90140
C          2.12970        0.19660       -1.29720
C          3.01210        0.88930       -1.73470
H          0.78990        1.71890        0.43690
H         -0.03340       -1.67520        1.47910
H         -0.78100       -0.09980        2.07870
H         -2.19290        0.02460       -0.00220
H         -1.44530       -1.54900       -0.60340
H          3.79240        1.49130       -2.13340
