14
gdb 3298	5.86396	2.24736	1.9606	1.6288	62.71	-0.2358	0.0288	0.2647	676.5342	0.113597	-287.353313	-287.347094	-287.34615	-287.383122	23.853
C         -0.04440       -1.25890       -0.12390
C         -0.01920       -0.05880       -0.04580
C          0.01210        1.38600        0.06920
C         -0.24780        2.03280        1.46910
C          1.15570        2.61540        1.35670
C          2.15940        1.56230        1.12030
N          1.38140        2.04650       -0.03710
H         -0.06990       -2.31740       -0.20660
H         -0.62380        1.83180       -0.69970
H         -1.04220        2.77960        1.43120
H         -0.43090        1.35420        2.30570
H          1.42840        3.63820        1.59460
H          3.20120        1.86220        1.06790
H          1.99230        0.55050        1.48150
