12
gdb 3428	5.06186	2.96878	2.11094	4.0786	49.96	-0.2449	0.0066	0.2514	592.5765	0.091935	-360.527434	-360.521917	-360.520973	-360.556704	20.606
O          0.01440       -0.03250       -0.06150
C          0.01020        1.17640       -0.01490
N         -1.08860        1.99150        0.09330
C         -0.83040        3.42150        0.03880
C          0.68970        3.48400       -0.01830
O          1.31220        2.90690        1.12450
C          1.20630        2.11110       -0.07180
H         -1.99690        1.59970        0.28230
H         -1.26940        3.88160       -0.85630
H         -1.21670        3.94480        0.92160
H          1.19030        4.33730       -0.46440
H          2.13400        1.79520       -0.53480
