18
gdb 14666	4.83959	0.65667	0.60835	0.2777	85.14	-0.2383	0.0493	0.2876	1890.1908	0.150873	-310.624232	-310.613833	-310.612889	-310.665028	34.15
C         -0.70000        1.17790       -0.36480
C          0.48610        0.34130        0.14840
C          1.24470       -0.29570       -0.92340
C          1.85280       -0.81390       -1.82340
C          2.60390       -1.44390       -2.91270
C          2.19600       -2.82320       -3.19260
C          1.86550       -3.95570       -3.42680
C          1.46210       -5.32630       -3.70680
H         -0.35440        1.97640       -1.02700
H         -1.40020        0.55400       -0.92690
H         -1.23770        1.63270        0.47260
H          1.15570        0.97930        0.73970
H          0.11900       -0.42880        0.83910
H          2.49700       -0.84000       -3.82520
H          3.67700       -1.42220       -2.67480
H          1.10020       -5.43410       -4.73530
H          2.29720       -6.02320       -3.57490
H          0.65590       -5.64600       -3.03730
