15
gdb 3248	5.95067	2.33797	2.117	1.8479	60.81	-0.2488	0.0873	0.3361	660.044	0.125282	-308.457113	-308.451203	-308.450259	-308.486567	23.262
C         -0.04190        1.50600       -0.04730
C          1.27570        0.76220        0.01300
C         -0.02190        0.01030        0.00050
C         -0.53590       -0.95840        1.09880
C         -0.96000       -1.90570       -0.03990
O         -1.87990       -1.19330       -0.87290
C         -0.47380       -0.96910       -1.06640
H         -0.36640        2.03590        0.84230
H         -0.31980        1.98850       -0.97850
H          1.89060        0.73860       -0.88150
H          1.84100        0.79090        0.93900
H          0.26960       -1.36020        1.71980
H         -1.35460       -0.60600        1.73150
H         -1.01990       -2.98750       -0.03990
H         -0.07310       -1.13830       -2.05980
