20
gdb 12850	2.75067	2.35134	1.78576	1.2751	73.59	-0.24	0.0798	0.3198	858.1916	0.17845	-349.012641	-349.00521	-349.004266	-349.044076	29.466
C         -0.21060        1.57460        0.20680
C          0.10350        0.10270        0.04270
C         -1.09740       -0.89320        0.14740
C         -0.38780       -1.63210        1.31680
C          0.83210       -0.67260        1.19820
C          2.08960       -1.23560        0.52630
C          1.71230       -1.21150       -0.96430
O          0.89650       -0.05960       -1.12860
H          0.71210        2.15810        0.28430
H         -0.77550        1.94290       -0.65600
H         -0.81000        1.74650        1.10600
H         -2.04980       -0.42380        0.40690
H         -1.24150       -1.48400       -0.76040
H         -0.91090       -1.56390        2.27330
H         -0.16000       -2.68620        1.13270
H          1.05680       -0.09870        2.09930
H          2.94200       -0.57230        0.70470
H          2.35890       -2.23600        0.87810
H          2.56850       -1.11540       -1.63750
H          1.16370       -2.12560       -1.24380
