18
gdb 12501	3.51935	1.93049	1.3692	0.6512	83.82	-0.207	-0.0258	0.1812	936.0425	0.155454	-310.697128	-310.689844	-310.6889	-310.728224	28.644
C         -0.06270        1.52350        0.02870
C          0.01560        0.02380       -0.00380
C          0.08050       -0.67510       -1.15780
C          0.01820       -2.11080       -1.29100
C         -0.65690       -2.97090       -0.48070
C         -1.44130       -2.59570        0.67190
C         -1.19680       -1.53170        1.45990
C          0.06040       -0.71340        1.31870
H          0.78350        1.95280        0.58170
H         -0.07270        1.95360       -0.97630
H         -0.97060        1.85820        0.54660
H          0.16980       -0.11680       -2.08840
H          0.45230       -2.52360       -2.19950
H         -0.71540       -4.01100       -0.79350
H         -2.30780       -3.21740        0.88840
H         -1.91000       -1.25680        2.23230
H          0.93300       -1.38120        1.33160
H          0.16630       -0.01170        2.15040
