19
gdb 11967	2.85565	1.91915	1.73784	1.964	70.89	-0.2423	0.0665	0.3088	890.6122	0.164186	-365.023666	-365.015324	-365.01438	-365.056018	31.652
C         -0.22070        1.54330        0.12660
C          0.00540        0.03910        0.05270
C         -1.22990       -0.71340       -0.42820
O          1.15510       -0.26510       -0.79440
C          1.88030       -0.89660        0.28410
C          0.74360       -0.59720        1.24780
C          0.74200       -0.20740        2.67000
N          0.23510       -1.53060        2.24040
H          0.68340        2.05390        0.46790
H         -0.48300        1.93260       -0.86260
H         -1.03870        1.78600        0.81390
H         -1.50930       -0.36830       -1.42860
H         -1.03800       -1.78850       -0.47750
H         -2.08380       -0.53970        0.23670
H          2.05810       -1.96360        0.10260
H          2.83640       -0.39750        0.48540
H          1.66200       -0.23780        3.24820
H          0.02880        0.54640        2.99550
H         -0.78270       -1.53540        2.23950
