15
gdb 21053	3.80689	1.83705	1.25867	3.5389	63.55	-0.2237	0.0153	0.239	932.0794	0.119746	-396.021362	-396.01343	-396.012486	-396.053951	27.934
C         -0.10950        1.41880       -0.04080
N         -0.04080       -0.02280        0.01530
N         -0.13500       -0.74630       -1.14470
C         -0.03300       -1.97890       -0.68780
O         -0.07670       -3.03590       -1.51150
N          0.11770       -2.10960        0.65510
C          0.10840       -0.84760        1.07190
C          0.24230       -0.40780        2.49170
H         -0.01740        1.82200        0.96830
H          0.70100        1.81100       -0.66140
H         -1.06410        1.73470       -0.47040
H          0.01680       -3.81740       -0.95390
H          1.12100        0.22870        2.64080
H         -0.63650        0.15130        2.83030
H          0.34880       -1.29370        3.11820
