16
gdb 13946	3.44906	1.8553	1.49213	3.5408	60.42	-0.2459	0.0548	0.3006	867.5243	0.129633	-420.823407	-420.815794	-420.81485	-420.855804	27.475
O          0.10950        1.29230       -0.30450
C          0.11030       -0.05400        0.09330
C         -0.01830       -0.37450        1.60010
O         -1.22050       -1.13800        1.35490
C         -1.26950       -0.72960       -0.01810
C         -2.50050        0.03840       -0.53290
O         -2.68520       -0.91500       -1.60350
C         -1.64620       -1.76760       -1.08440
H          1.01470        1.61730       -0.30750
H          0.90190       -0.62670       -0.40680
H          0.76760       -0.98310        2.06060
H         -0.21040        0.51610        2.21100
H         -3.33240        0.03290        0.18270
H         -2.32170        1.05220       -0.90280
H         -0.88340       -2.00360       -1.83720
H         -2.03810       -2.69800       -0.65280
