22
gdb 5883	3.78014	0.89026	0.86647	0.1425	88.	-0.2393	0.0629	0.3022	1516.2968	0.197328	-313.063538	-313.052927	-313.051982	-313.09943	38.19
C         -0.05010        1.55830        0.06570
C          0.00590        0.02130       -0.00520
C          0.68550       -0.47410       -1.19890
C          1.25070       -0.85890       -2.19180
C          1.93690       -1.33990       -3.39840
C          1.95250       -2.88550       -3.39680
C          1.18950       -0.83230       -4.65230
C          3.38810       -0.80880       -3.41130
H          0.95730        1.98350        0.07230
H         -0.58190        1.96750       -0.79770
H         -0.56710        1.88130        0.97440
H          0.50980       -0.36650        0.88990
H         -1.01470       -0.38230        0.02830
H          0.93480       -3.28620       -3.38710
H          2.46160       -3.26030       -4.29180
H          2.47640       -3.26970       -2.51690
H          1.16580        0.26090       -4.67630
H          1.68970       -1.18640       -5.56040
H          0.15740       -1.19400       -4.66450
H          3.93770       -1.15360       -2.53080
H          3.91280       -1.16260       -4.30560
H          3.40320        0.28490       -3.41340
