17
gdb 17722	4.47943	2.53391	2.06835	1.606	71.67	-0.2267	0.0943	0.321	707.0213	0.145238	-326.630253	-326.624787	-326.623843	-326.659357	23.507
C         -0.09670        1.55140        0.00570
C          1.42370        1.25030       -0.00620
C          1.33120        0.16270        1.08760
C          1.82960       -0.95860        0.17710
C          0.82030       -2.12720        0.26840
C         -0.55150       -1.35020        0.27390
C          0.04890        0.03450        0.19860
N          1.19300       -0.02370       -0.85110
H         -0.48400        2.12300        0.85270
H         -0.53030        1.88160       -0.94200
H          2.24370        1.93490       -0.22740
H          1.37580        0.27710        2.17670
H          2.88350       -1.21540        0.04710
H          0.90680       -2.79210       -0.59520
H          0.96460       -2.72510        1.17300
H         -1.17120       -1.59300       -0.59250
H         -1.13410       -1.52010        1.18290
