22
gdb 10854	3.54229	1.49613	1.28415	0.226	84.	-0.2357	0.0293	0.2649	1080.8522	0.201789	-313.099568	-313.091249	-313.090305	-313.131874	32.673
C         -0.14410        1.57220        0.03090
C         -0.02310        0.04090        0.01510
C          0.62960       -0.46630       -1.28130
C          0.99510       -1.95230       -1.18180
C          2.00150       -2.22400       -0.04510
C          3.45880       -1.94190       -0.46000
C          1.62880       -1.44680        1.19450
C          0.73220       -0.46130        1.22330
H          0.84520        2.04230       -0.00120
H         -0.71580        1.92960       -0.83210
H         -0.65000        1.92150        0.93740
H         -1.04660       -0.36580        0.06420
H         -0.04230       -0.29350       -2.12990
H          1.53330        0.12610       -1.47740
H          0.08060       -2.52900       -0.99380
H          1.40130       -2.31190       -2.13420
H          1.94750       -3.29330        0.20550
H          3.58870       -0.90000       -0.77000
H          4.14750       -2.12440        0.37160
H          3.75890       -2.58660       -1.29320
H          2.14480       -1.72720        2.11140
H          0.51360        0.03510        2.16780
