16
gdb 16034	3.42803	1.74363	1.41416	3.5977	70.75	-0.2371	0.0154	0.2525	911.3206	0.131668	-342.754545	-342.747094	-342.746149	-342.786119	27.917
C         -0.00230        1.54150        0.01630
C          0.08390        0.03280        0.05430
C          1.33380       -0.74480       -0.18700
N          2.50120        0.00320        0.30140
C          1.99160       -0.10090        1.70800
C          0.68660       -0.75500        1.22010
C         -0.02840       -1.76820        1.91430
N         -0.60410       -2.59820        2.48220
H          0.96270        1.99750        0.24550
H         -0.29460        1.87250       -0.98560
H         -0.74950        1.91260        0.72440
H         -0.79340       -0.48460       -0.32740
H          1.41940       -1.54800       -0.90940
H          3.35340       -0.53400        0.19060
H          2.57570       -0.79110        2.32140
H          1.90140        0.85950        2.22500
