14
gdb 9819	2.95629	1.88051	1.45799	1.8604	58.59	-0.2539	-0.1049	0.149	878.8815	0.103562	-419.665059	-419.656738	-419.655794	-419.698699	28.479
C         -0.32970        1.46450        0.04920
C         -0.04680       -0.01490       -0.05010
C          0.94840       -0.56030       -0.97940
O          1.23510       -0.46480        0.42460
C         -1.12100       -0.99120        0.39960
O         -1.51930       -1.91150       -0.27450
C         -1.68990       -0.86340        1.82240
O         -1.41620        0.01450        2.59560
H          0.54020        2.02760       -0.29810
H         -1.18840        1.73470       -0.57520
H         -0.54630        1.74650        1.08080
H          0.82590       -1.56870       -1.36590
H          1.50810        0.12830       -1.60940
H         -2.39560       -1.68860        2.05550
