16
gdb 9321	6.47681	0.78674	0.71072	4.038	68.81	-0.2652	-0.0564	0.2088	1500.3671	0.126978	-383.713153	-383.703738	-383.702794	-383.748292	32.089
O          0.01390        1.41440        0.00960
C          0.03950       -0.00340        0.00170
C         -1.40260       -0.49260        0.01270
C         -1.49560       -2.01640        0.00550
C         -2.92360       -2.53460        0.01630
O         -3.89710       -1.81420        0.02970
C         -3.05320       -3.98510        0.00960
C         -3.14120       -5.18560        0.00400
H          0.92110        1.73280        0.00240
H          0.55850       -0.38900       -0.89200
H          0.57520       -0.39850        0.88130
H         -1.91110       -0.09130        0.89480
H         -1.92750       -0.08200       -0.85530
H         -0.99550       -2.44910       -0.87290
H         -0.97900       -2.45840        0.86960
H         -3.23860       -6.24420       -0.00040
