15
gdb 20405	4.83169	2.06467	1.48591	2.1446	67.17	-0.1868	0.0273	0.2141	807.614	0.123648	-358.85262	-358.84647	-358.845526	-358.882657	24.261
C          0.02930        1.44540        0.09770
C          1.51130        1.89510       -0.09860
C          2.21110        0.57200        0.00650
N          3.45630        0.14010        0.12620
N          3.31770       -1.20350        0.08050
C          2.01560       -1.62940       -0.06450
C          1.27780       -0.47120       -0.11760
N         -0.02350        0.01470       -0.32530
H         -0.24230        1.55020        1.15820
H         -0.67240        2.04040       -0.49270
H          1.65650        2.34370       -1.08910
H          1.81340        2.63560        0.64590
H          4.13210       -1.77850        0.20510
H          1.76730       -2.67690       -0.10630
H         -0.76130       -0.50300        0.13450
