10
gdb 770	9.39312	3.67878	2.65177	3.1792	44.1	-0.2328	0.0029	0.2357	457.8147	0.07509	-301.341304	-301.336451	-301.335506	-301.36923	17.997
N          0.01080        1.39440        0.16210
C          0.03320        0.01550        0.04050
N         -1.08270       -0.68170       -0.00150
O         -0.67940       -2.02380       -0.03410
C          0.65650       -2.07190       -0.02670
C          1.18840       -0.82720        0.01980
H          0.74690        1.86720       -0.34210
H         -0.89680        1.79050       -0.04350
H          1.09230       -3.05920       -0.05380
H          2.22660       -0.54170        0.05070
