17
gdb 3598	5.69199	1.66818	1.47104	1.8464	65.08	-0.2529	0.0889	0.3418	878.4089	0.147714	-309.687698	-309.680332	-309.679388	-309.719362	27.006
C         -0.08190        1.51540       -0.17110
C         -0.07130        0.03550        0.11540
O          1.17630       -0.65660       -0.02180
C          0.57720       -0.59230        1.27990
C          1.31190        0.13980        2.34990
C          0.82880        0.02480        3.77790
C          2.11040       -0.64640        3.36370
H          0.77130        2.02460        0.28140
H         -0.04440        1.69050       -1.25140
H         -1.00280        1.97040        0.20970
H         -0.91520       -0.50660       -0.31890
H          0.16140       -1.54720        1.61530
H          1.72820        1.09540        2.05230
H          0.88190        0.90740        4.40510
H         -0.03460       -0.60370        3.97070
H          2.11250       -1.72760        3.27340
H          3.04950       -0.22710        3.70630
