16
gdb 8769	3.58963	1.21636	1.149	3.3117	67.11	-0.2467	-0.0263	0.2204	1084.2777	0.126368	-383.707183	-383.697744	-383.6968	-383.741867	32.881
C          0.10350        1.53770        0.00300
C          0.00960        0.00230       -0.00190
C          0.74980       -0.54890        1.20560
O          1.82110       -1.09670        1.15050
C         -1.46470       -0.49560        0.01440
O         -2.17080       -0.02840        1.16130
C         -2.15440       -0.15120       -1.22980
C         -2.72070        0.17260       -2.23980
H          1.14530        1.85770       -0.07850
H         -0.45220        1.95660       -0.84110
H         -0.30420        1.95570        0.92930
H          0.50000       -0.39750       -0.89500
H          0.22830       -0.39030        2.17450
H         -1.45360       -1.58800        0.11630
H         -2.49310        0.85840        0.96850
H         -3.22920        0.43730       -3.13430
