17
gdb 11553	6.32023	1.00318	0.93566	1.7055	65.7	-0.246	0.0143	0.2603	1259.27	0.141304	-401.007211	-400.998388	-400.997444	-401.042252	30.581
N          0.01960        1.27240       -0.35790
C         -0.12970       -0.06800        0.17900
C          0.88310       -0.45260        1.25470
O          1.74660        0.27130        1.67990
O          0.66770       -1.71800        1.67800
C          1.54710       -2.20880        2.67660
C          1.33680       -3.63470        3.06250
C          2.56420       -3.23020        2.26730
H         -0.01570        1.93960        0.40820
H          0.95570        1.37220       -0.74110
H         -1.13300       -0.19160        0.60370
H         -0.06010       -0.80550       -0.62920
H          1.80580       -1.46400        3.41830
H          1.44820       -3.90560        4.10620
H          0.56100       -4.17520        2.53230
H          2.58590       -3.50880        1.22000
H          3.53150       -3.21420        2.75640
