14
gdb 9129	5.55642	0.77348	0.68476	4.4045	65.83	-0.2581	-0.0477	0.2104	1540.9498	0.103443	-419.635317	-419.625813	-419.624868	-419.671123	30.917
O         -0.08130        1.48540        0.01170
C         -0.04000        0.06710        0.00240
C         -1.39420       -0.46570        0.01260
C         -2.50250       -0.94260        0.02050
C         -3.83750       -1.51240        0.03030
O         -4.03760       -2.70370        0.02580
C         -4.94800       -0.46840        0.04660
O         -6.19330       -1.10960        0.05510
H          0.82830        1.80080        0.00610
H          0.47910       -0.32020       -0.88960
H          0.49680       -0.33120        0.87900
H         -4.78150        0.17000        0.93170
H         -4.79840        0.17960       -0.83450
H         -6.87640       -0.43310        0.06620
