18
gdb 13171	3.09266	1.65614	1.33501	3.1137	72.13	-0.2356	0.032	0.2676	989.1965	0.154183	-343.976315	-343.968014	-343.96707	-344.00922	30.001
C          0.04140        1.56330        0.03570
C          0.00710        0.03040       -0.03680
C          0.49060       -0.43700       -1.36530
N          0.91270       -0.83750       -2.36490
N          0.74270       -0.56180        1.06270
C          2.22030       -0.45470        1.13130
C          2.25150       -1.87310        1.75110
C          0.81320       -2.03390        1.20250
H          1.06590        1.93250       -0.06210
H         -0.55710        2.00400       -0.76520
H         -0.35510        1.88130        1.00240
H         -1.03420       -0.30450        0.05230
H          2.69970       -0.42690        0.14140
H          2.58950        0.38070        1.73360
H          3.00520       -2.56130        1.36950
H          2.28830       -1.85610        2.84140
H          0.04980       -2.46260        1.85970
H          0.79770       -2.56290        0.23800
