17
gdb 18384	3.45932	2.23286	1.52141	2.3534	67.71	-0.2367	0.0223	0.2591	834.4953	0.14537	-363.850842	-363.844264	-363.84332	-363.881369	25.957
C         -0.08270        1.49800        0.03050
C          1.29780        0.88100        0.05380
C          2.07460        0.79920        1.33850
O          2.73730       -0.47200        1.49210
C          1.99990       -1.61170        1.58480
N          0.77110       -1.87510        1.46830
C         -0.25770       -0.88870        1.13380
C          0.07730        0.00070       -0.05300
H         -0.46900        1.91730        0.95450
H         -0.38050        2.04040       -0.85970
H          1.90540        0.99190       -0.83900
H          2.88510        1.53190        1.36950
H          1.43560        0.97770        2.20950
H          2.69080       -2.42570        1.80900
H         -1.17490       -1.44570        0.91480
H         -0.49130       -0.28230        2.01790
H         -0.09540       -0.45500       -1.02320
