21
gdb 9684	4.4683	1.06823	0.98056	1.706	75.59	-0.2416	0.0636	0.3052	1280.5635	0.187129	-366.241377	-366.231528	-366.230584	-366.276233	35.51
C         -0.20100        1.51190       -0.37910
C         -0.02030        0.11830        0.23430
C         -1.33510       -0.62290        0.33860
N         -1.84030       -1.28150       -0.87940
C         -1.50510       -2.10520        0.29690
C         -0.33710       -3.05490        0.11820
C         -2.66420       -2.67520        1.09860
O         -3.37680       -3.69750        0.41430
H          0.75470        2.03900       -0.45660
H         -0.63040        1.43420       -1.38270
H         -0.87360        2.12890        0.22750
H          0.68160       -0.45790       -0.37560
H          0.42220        0.20440        1.23540
H         -2.07350       -0.09580        0.94640
H         -2.84960       -1.18560       -0.96460
H          0.43190       -2.62540       -0.52460
H          0.11520       -3.31220        1.08280
H         -0.66650       -3.98510       -0.36060
H         -2.30120       -3.03100        2.07650
H         -3.40250       -1.88910        1.29070
H         -2.79330       -4.45590        0.31580
