19
gdb 18157	3.63378	1.456	1.29137	2.7684	71.07	-0.2238	0.0688	0.2927	1019.4667	0.165715	-365.003599	-364.995354	-364.99441	-365.036333	30.777
C         -0.08860        1.53840        0.33450
C          0.05500        0.07280       -0.00830
C          0.54680       -0.55270       -1.25800
C          1.73600        0.13440       -1.92760
C          1.54920        1.39930       -2.74650
O          2.83120        1.76990       -3.23700
C          2.40880        0.13770       -0.53160
N          1.30690       -0.70580        0.06730
H         -1.04540        1.91640       -0.04170
H         -0.08580        1.66750        1.42260
H          0.70050        2.16860       -0.07520
H         -0.74020       -0.52050        0.44400
H          0.01990       -1.39540       -1.69850
H          2.25410       -0.58510       -2.56880
H          0.84700        1.19220       -3.57170
H          1.10990        2.20670       -2.14430
H          2.74000        2.58680       -3.73590
H          3.35080       -0.41040       -0.49170
H          2.55240        1.10840       -0.04830
