15
gdb 5789	6.06541	1.38793	1.21861	2.103	66.99	-0.2156	0.0225	0.2381	967.7657	0.12109	-362.656657	-362.65005	-362.649106	-362.687948	24.862
C          0.02910        1.55430       -0.00460
N          1.25440        0.74340        0.01830
C         -0.05140        0.06330        0.02850
C         -0.39610       -0.68220        1.25780
C          0.38510       -0.84810        2.36000
O         -0.26400       -1.58090        3.30480
C         -1.48330       -1.89210        2.79380
C         -1.62450       -1.37290        1.54780
H         -0.16270        2.11140        0.90760
H         -0.24880        2.06430       -0.92370
H          1.66440        0.69860       -0.91020
H         -0.37860       -0.40590       -0.89810
H          1.38160       -0.52230        2.60240
H         -2.12250       -2.48060        3.43110
H         -2.48910       -1.46200        0.90810
