16
gdb 11962	3.58753	1.6128	1.37504	2.4721	61.16	-0.2356	0.0599	0.2955	926.7851	0.128939	-420.816547	-420.808523	-420.807579	-420.849175	29.629
O          0.01440        1.44010       -0.26790
C          0.02650        0.08140        0.14640
C         -1.32290       -0.55120        0.05050
C         -2.00780       -1.06810       -1.19150
C         -1.87500       -1.95580        0.02850
O         -1.21830       -3.16830        0.04370
C         -2.83250       -1.47120        1.11550
O         -2.31780       -0.11520        0.99430
H         -0.61720        1.90000        0.29590
H          0.72410       -0.44250       -0.51400
H          0.39850       -0.01670        1.17740
H         -2.96740       -0.65940       -1.49740
H         -1.32820       -1.33040       -1.99720
H         -1.64490       -3.75530       -0.59010
H         -3.91100       -1.52810        0.92660
H         -2.59710       -1.89000        2.10030
