13
gdb 7036	5.99179	0.96539	0.89897	4.2733	58.44	-0.2588	-0.0507	0.2081	1208.3499	0.093024	-435.788225	-435.779879	-435.778935	-435.822862	27.361
O          0.64770       -0.27030       -0.11160
C          0.28500        0.85840       -0.30290
C          1.12340        2.08150        0.05950
C          1.01600        3.14480       -1.03130
O         -0.04980        3.54370       -1.42430
N          2.25050        3.57760       -1.52810
C          2.48150        4.53260       -2.52250
O          1.64990        5.15050       -3.12250
H         -0.69660        1.10500       -0.75470
H          0.67510        2.51840        0.96150
H          2.14050        1.76210        0.29770
H          3.07690        3.15890       -1.12740
H          3.57200        4.64810       -2.68760
