11
gdb 195	9.03471	3.7	2.63327	1.5774	48.3	-0.1844	0.0397	0.2241	472.7151	0.086472	-285.313612	-285.308395	-285.307451	-285.341898	19.374
N          0.08580        1.37210        0.17830
C         -0.06690       -0.00260        0.05220
C         -1.14890       -0.83140        0.00270
C         -0.61130       -2.16490       -0.02720
C          0.73600       -2.04390        0.00070
O          1.08490       -0.71300        0.05240
H          0.92730        1.71090       -0.27110
H         -0.72200        1.88360       -0.14870
H         -2.18610       -0.53830       -0.01040
H         -1.16920       -3.08750       -0.06950
H          1.55940       -2.73640       -0.01060
