16
gdb 10944	4.50078	1.42045	1.28745	3.0919	65.78	-0.2418	-0.034	0.2078	974.4754	0.128245	-383.707881	-383.700114	-383.699169	-383.740387	28.334
C         -0.03330        1.54750        0.28470
C          0.02880        0.06550        0.12180
C         -0.84230       -0.96170        0.77100
C          0.66740       -1.07900        0.88940
C          1.22270       -1.51270       -0.46890
O          0.50430       -0.44600       -1.13940
C          2.72050       -1.30070       -0.58060
O          3.53020       -2.18240       -0.46590
H          0.93370        2.01000        0.06490
H         -0.77820        1.97430       -0.39610
H         -0.32250        1.80720        1.30690
H         -1.33250       -0.64760        1.68770
H         -1.40490       -1.66320        0.16120
H          1.19680       -1.11220        1.83190
H          0.95380       -2.51070       -0.83210
H          3.00770       -0.24050       -0.76180
