14
gdb 7206	4.4377	1.1156	0.90139	1.6456	69.88	-0.2447	-0.0921	0.1526	1251.687	0.102812	-382.546926	-382.537414	-382.536469	-382.58417	30.555
C          0.02550        1.46010       -0.00030
C          0.03400        0.01040        0.05540
C          0.04210       -1.19600        0.10130
C          0.03370       -2.63230        0.16070
O         -0.94420       -3.29590        0.44020
C          1.38070       -3.32900       -0.16020
C          1.35720       -4.83550       -0.09420
O          2.35230       -2.66990       -0.43780
H          1.01170        1.85500       -0.26370
H         -0.69610        1.81330       -0.74500
H         -0.26640        1.88180        0.96770
H          0.60910       -5.22990       -0.78920
H          2.34560       -5.22750       -0.33430
H          1.04670       -5.16270        0.90310
