14
gdb 3398	4.76309	2.4405	2.21585	2.3623	58.09	-0.2301	-0.0213	0.2088	647.6019	0.113029	-324.540084	-324.533737	-324.532793	-324.570221	23.601
C         -0.10920        1.52470        0.02520
N          0.08930        0.08410       -0.10470
C          0.67640       -0.54330       -1.25210
C          1.78770        0.30480       -1.89620
C          2.50530        0.24910       -0.51820
O          3.60090        0.56350       -0.15330
C          1.38240       -0.55780        0.10780
H          0.68590        2.15380       -0.39530
H         -1.05220        1.78580       -0.46450
H         -0.20170        1.76020        1.08890
H          0.15800       -1.37160       -1.72140
H          2.38260       -0.23910       -2.63620
H          1.51070        1.27790       -2.30820
H          1.46910       -1.32480        0.86980
