14
gdb 8644	2.56996	1.77669	1.41086	3.689	63.63	-0.2653	-0.0026	0.2627	922.6263	0.105222	-378.6755	-378.666734	-378.66579	-378.708416	31.591
N         -0.05240        1.51430        0.03600
C          0.01620        0.04700        0.00490
C          0.75670       -0.49330       -1.26940
O          0.18730        0.03940       -2.44100
C          0.68140       -0.46720        1.20210
C          1.28720       -0.89600        2.14530
C         -1.37240       -0.47550       -0.07170
N         -2.43370       -0.90370       -0.22960
H          0.85120        1.87350        0.32930
H         -0.21460        1.83020       -0.91860
H          1.78950       -0.13710       -1.22200
H          0.76020       -1.59060       -1.26060
H         -0.66150       -0.39460       -2.59010
H          1.80320       -1.27330        2.99440
