18
gdb 16706	2.95382	2.17202	1.75757	2.9171	70.98	-0.2315	-0.0017	0.2298	839.8189	0.155467	-347.815782	-347.80881	-347.807866	-347.846705	27.597
C         -0.08370        1.52530        0.01790
C          0.05530        0.00440        0.04630
C          0.99660       -0.58260       -1.07540
C          2.02940       -1.33330       -0.20620
C          1.10460       -2.01670        0.85740
C          0.78100       -0.55020        1.29910
C          2.25230       -0.30010        0.91590
O          3.18180        0.29390        1.37570
H          0.89310        2.01530        0.09650
H         -0.55060        1.85700       -0.91540
H         -0.70330        1.88330        0.84700
H         -0.93970       -0.44810       -0.02270
H          0.46810       -1.25890       -1.75290
H          1.45750        0.20580       -1.67790
H          2.85170       -1.84910       -0.69760
H          0.26580       -2.59760        0.46570
H          1.65360       -2.58670        1.60880
H          0.37910       -0.29970        2.27910
