18
gdb 11296	4.43524	1.32462	1.16503	1.9872	73.61	-0.252	0.0591	0.3111	1055.3283	0.153986	-347.784456	-347.77631	-347.775366	-347.817215	30.823
O         -0.75760        1.15590        0.84120
C          0.03020        0.22680        0.09790
C          0.90100       -0.66030        1.01770
C          0.03460       -1.90070        1.37140
C         -1.32540       -1.68260        0.64220
C         -0.95140       -0.75560       -0.53980
C         -1.99710       -2.91360        0.25790
C         -2.53900       -3.93630       -0.06910
H         -0.16040        1.70470        1.35880
H          0.63340        0.75760       -0.65210
H          1.81290       -0.96200        0.49280
H          1.21800       -0.10030        1.90370
H          0.50330       -2.81650        1.00180
H         -0.10990       -2.02720        2.44650
H         -1.98350       -1.10900        1.30400
H         -1.81430       -0.25000       -0.97790
H         -0.45020       -1.33250       -1.32400
H         -3.02470       -4.83690       -0.35200
