18
gdb 10642	2.65014	1.80356	1.32186	0.9092	75.46	-0.2387	0.0394	0.2781	1009.4173	0.150511	-347.747439	-347.738291	-347.737347	-347.780723	33.522
C          0.04940        1.30630       -0.28950
O         -0.05220       -0.00160        0.24830
C         -1.32220       -0.57150        0.11820
C         -1.67330       -1.19990       -1.22600
C         -1.33810       -2.07900       -0.04680
C         -0.04960       -2.86820       -0.00220
C         -2.36620        0.05990        0.88740
C         -3.22860        0.60050        1.52920
H          1.08250        1.62690       -0.13910
H         -0.18130        1.31830       -1.36420
H         -0.62510        2.00440        0.22260
H         -2.69790       -1.14020       -1.57410
H         -0.91500       -1.09640       -1.99560
H         -2.18710       -2.56140        0.42840
H          0.77600       -2.29520       -0.42830
H          0.21840       -3.12470        1.02790
H         -0.15390       -3.80130       -0.56630
H         -3.98980        1.06990        2.10170
