12
gdb 16723	6.66772	1.53067	1.37304	4.9159	61.28	-0.2727	-0.0623	0.2104	848.3851	0.085198	-377.518204	-377.512153	-377.511208	-377.548441	22.712
N          0.08220       -1.08670        0.07430
C          0.00470        0.06550        0.04360
C         -0.08340        1.49450        0.00590
N         -1.17040        2.16250       -0.00430
C         -0.77660        3.54800        0.00460
C          0.02050        3.99910        1.21460
C          0.75080        3.53580       -0.00500
O          1.10400        2.15870       -0.03590
H         -1.41270        4.23940       -0.53240
H          0.04140        5.06690        1.40040
H          0.01450        3.37110        2.09910
H          1.42080        4.15450       -0.58600
