13
gdb 9596	4.07242	1.27377	1.20743	4.1055	61.15	-0.2661	-0.045	0.2211	992.7892	0.093361	-398.596564	-398.588695	-398.58775	-398.62903	27.892
O          0.03770        1.38680       -0.04360
C          0.03390       -0.00670       -0.00740
C         -0.51460       -0.70960        1.20510
C         -1.33920       -0.66600       -0.07140
C         -2.55440        0.20070       -0.11190
O         -3.55280       -0.09950       -0.71360
C          1.11030       -0.64000       -0.74280
N          1.98950       -1.12790       -1.31360
H          0.80080        1.70370        0.45420
H         -0.09060       -1.66060        1.50330
H         -0.82830       -0.05690        2.01330
H         -1.41930       -1.57450       -0.65640
H         -2.47910        1.14040        0.47160
