14
gdb 20469	6.32754	1.38792	1.23061	3.3962	63.63	-0.2362	0.0166	0.2528	941.6202	0.109512	-378.713043	-378.706465	-378.705521	-378.744535	24.066
C          0.21410        1.53500        0.02620
O          1.17280        0.50630       -0.20900
C         -0.18920        0.11650        0.01350
C         -0.46710       -0.64120        1.24750
C         -1.51960       -1.50120        1.49550
N         -1.35750       -1.94770        2.76440
N         -0.26200       -1.44910        3.36720
C          0.28090       -0.65540        2.45090
H          0.30210        2.04940        0.98200
H         -0.01350        2.17040       -0.82940
H         -0.69840       -0.24440       -0.88080
H         -2.34790       -1.81650        0.88060
H         -1.94030       -2.59360        3.26900
H          1.20010       -0.13080        2.66290
