11
gdb 1019	9.38813	1.91752	1.5923	0.4381	60.39	-0.2252	-0.0079	0.2173	710.3239	0.078918	-306.112153	-306.106413	-306.105469	-306.141522	21.562
C          0.02540       -1.19920       -0.00390
C          0.00290        0.00460        0.00290
C         -0.00140        1.41820        0.01060
C         -1.09440        2.24120        0.02940
O         -0.71630        3.53900        0.03140
C          0.64560        3.56060        0.01360
C          1.14190        2.30090        0.00030
H          0.03840       -2.26070       -0.00970
H         -2.15380        2.04870        0.04240
H          1.09680        4.53870        0.01290
H          2.17850        2.00610       -0.01490
