13
gdb 23883	3.48881	1.47796	1.27959	2.0278	49.04	-0.2438	0.0054	0.2492	942.1021	0.091821	-526.290798	-526.282555	-526.28161	-526.324295	28.416
C         -0.01520        1.43900        0.06470
N          0.03350       -0.00650       -0.05150
C          0.61890       -0.59200       -1.13240
N          1.04970        0.06530       -2.13650
C          0.62460       -2.12270       -1.04930
F          1.51980       -2.64710       -1.88730
F          0.92350       -2.54360        0.19540
F         -0.57470       -2.62960       -1.35980
H          0.98480        1.88120        0.15860
H         -0.48040        1.86010       -0.82940
H         -0.61160        1.70290        0.94010
H         -0.00800       -0.55250        0.79260
H          1.40820       -0.56570       -2.84960
