24
gdb 6415	3.8395	0.89368	0.8812	1.3703	82.05	-0.2612	0.0719	0.3331	1494.3755	0.221025	-351.41995	-351.409159	-351.408214	-351.456019	39.171
C          0.09740        1.54380        0.09660
C         -0.03210        0.02000        0.00350
C         -1.47810       -0.50600       -0.07910
C         -2.19050       -0.02930       -1.35330
C         -1.48820       -2.04200        0.03570
C         -2.86730       -2.67310        0.27520
C         -2.79050       -4.19770        0.37370
O         -3.50710       -2.11690        1.42440
H          1.14280        1.83870        0.23360
H         -0.26640        2.04480       -0.80540
H         -0.47220        1.93670        0.94660
H          0.53320       -0.34320       -0.86680
H          0.45040       -0.42750        0.88240
H         -2.03120       -0.11570        0.78550
H         -2.22230        1.06210       -1.41370
H         -1.67570       -0.39770       -2.24980
H         -3.22520       -0.38130       -1.39380
H         -1.04890       -2.48400       -0.86970
H         -0.83250       -2.34400        0.86680
H         -3.53720       -2.41200       -0.55210
H         -2.12180       -4.50150        1.18930
H         -3.78130       -4.61590        0.57090
H         -2.40430       -4.63700       -0.55190
H         -2.97380       -2.34900        2.19320
