20
gdb 6610	4.18886	1.412	1.30587	1.8792	75.07	-0.2562	0.0781	0.3343	1034.5627	0.175351	-348.982853	-348.974511	-348.973567	-349.015216	32.396
C         -0.55910        1.56130       -0.07430
C          0.08840        0.18410        0.02590
C         -0.94180       -0.92910       -0.17720
C          1.36750       -0.03150       -0.85850
C          2.06170       -0.60350        0.37630
C          2.85320       -1.82840        0.50480
O          3.45190       -0.53020        0.63140
C          0.97280       -0.06000        1.29980
H          0.17720        2.35880        0.07080
H         -1.02310        1.70830       -1.05660
H         -1.34120        1.68540        0.68380
H         -1.41480       -0.85080       -1.16280
H         -0.48140       -1.92030       -0.10600
H         -1.73330       -0.87380        0.57910
H          1.26830       -0.68150       -1.73220
H          1.82260        0.91420       -1.16900
H          2.80690       -2.41170        1.42420
H          3.13790       -2.38780       -0.38620
H          1.28430        0.87530        1.77520
H          0.57400       -0.73160        2.06510
