18
gdb 17288	3.04012	2.45144	1.8835	1.7548	70.33	-0.2505	0.0762	0.3266	794.7796	0.153813	-347.747252	-347.740329	-347.739385	-347.777832	27.895
C         -0.02170        1.54980       -0.01360
C          0.00800        0.03930        0.02090
C         -1.30900       -0.75650        0.28300
C         -0.61290       -1.54120        1.43930
C          0.70880       -0.76430        1.17510
C          1.66760       -1.36360        0.11990
O          0.87940       -2.05060       -0.86170
C          1.00220       -0.62910       -0.97090
H          0.99120        1.96970       -0.02850
H         -0.54390        1.91370       -0.90740
H         -0.53850        1.95650        0.86210
H         -2.13050       -0.11670        0.61680
H         -1.65280       -1.36910       -0.55220
H         -1.03770       -1.33900        2.42520
H         -0.54910       -2.62090        1.29520
H          1.19530       -0.24650        2.00300
H          2.69290       -1.69770        0.23720
H          1.37650       -0.24080       -1.91350
