14
gdb 7944	3.6501	1.83485	1.26945	1.8186	58.99	-0.2621	-0.0177	0.2445	897.8668	0.108594	-415.90782	-415.900634	-415.899689	-415.939564	26.366
N          0.09570        1.44540        0.28770
C         -0.03700        0.03360       -0.02150
C         -1.48040       -0.44220       -0.22770
C         -1.36470       -1.55270       -1.25580
O         -2.15030       -2.38830       -1.57120
O         -0.12030       -1.46280       -1.86870
C          0.64190       -0.45550       -1.29920
N          1.72070       -0.02020       -1.77200
H          1.08350        1.66460        0.38670
H         -0.22140        1.99620       -0.50710
H          0.40860       -0.53140        0.80760
H         -1.98500       -0.79670        0.67080
H         -2.09690        0.35600       -0.65860
H          1.97530       -0.49960       -2.63670
