14
gdb 15457	3.71903	1.78423	1.22384	3.4682	74.11	-0.2421	-0.0551	0.187	937.8158	0.106621	-345.414052	-345.406756	-345.405812	-345.445841	26.936
O          0.01410       -0.00470        0.00350
C         -0.00250        1.19910        0.00930
C         -1.25160        2.09190        0.03120
C         -0.72940        3.53970        0.03190
C          0.76790        3.39540        0.01170
C          1.18850        2.11590       -0.00060
C          2.51940        1.64010       -0.02020
C          3.64000        1.20090       -0.03690
H         -1.87120        1.85930       -0.83940
H         -1.84730        1.84990        0.91600
H         -1.07560        4.11520       -0.83550
H         -1.05280        4.10620        0.91400
H          1.42960        4.25440        0.00780
H          4.62830        0.81280       -0.05170
