16
gdb 4927	4.6964	1.48576	1.14487	2.668	68.56	-0.1869	0.0353	0.2222	1030.7271	0.130806	-379.9601	-379.951836	-379.950892	-379.99376	28.937
C         -0.05740        1.40560       -0.03340
O         -0.00220       -0.01460        0.00280
C         -1.19280       -0.64890        0.02010
C         -1.36690       -2.00970        0.05420
N         -2.74520       -2.17030        0.06010
C         -3.31750       -0.93870        0.02980
C         -4.79260       -0.71210        0.02640
N         -2.39230        0.00690        0.00540
H          0.98050        1.74340       -0.04390
H         -0.57620        1.76290       -0.92930
H         -0.57300        1.80820        0.84510
H         -0.67950       -2.83590        0.07370
H         -3.23190       -3.05020        0.08270
H         -5.27200       -1.11700        0.92550
H         -4.97980        0.36170       -0.00730
H         -5.27660       -1.17360       -0.84230
