20
gdb 18927	3.42194	2.35924	1.89106	0.0312	77.76	-0.2677	0.0979	0.3656	809.607	0.180314	-311.839262	-311.832888	-311.831944	-311.869277	27.099
C         -0.07900        1.52480        0.02140
C          0.09450        0.00690        0.03060
C          1.05710       -0.61450       -1.01240
C          2.42520        0.02790       -0.66150
C          2.28400       -0.80020        0.62230
C          1.52080       -1.89930       -0.18510
C          0.58560       -2.12110        1.01230
C          0.82970       -0.60760        1.24970
H          0.84410        2.05980        0.25890
H         -0.42730        1.87730       -0.95630
H         -0.82570        1.82470        0.76470
H         -0.90020       -0.44470       -0.06420
H          0.70910       -0.68750       -2.04340
H          3.23030       -0.37760       -1.28280
H          2.51540        1.11630       -0.62580
H          3.10280       -1.02150        1.30640
H          2.02400       -2.69660       -0.73180
H         -0.44510       -2.45800        0.85880
H          1.07010       -2.75270        1.76340
H          0.67690       -0.14420        2.22490
