14
gdb 4942	6.67377	1.25086	1.06037	0.5994	59.41	-0.1973	0.0575	0.2548	1035.5434	0.108088	-415.89285	-415.885154	-415.88421	-415.925383	27.738
O          0.00070        1.39090        0.05390
C         -0.01930       -0.02610       -0.02380
C         -1.44180       -0.47730       -0.00960
C         -2.56830        0.28580        0.06350
N         -3.62540       -0.62410        0.04260
C         -3.06760       -1.85510       -0.04070
O         -3.85350       -2.94580       -0.07920
N         -1.76280       -1.82750       -0.07530
H          0.91800        1.67610        0.03900
H          0.47130       -0.38800       -0.94240
H          0.51960       -0.48510        0.82150
H         -2.72130        1.34790        0.12630
H         -4.60910       -0.42190        0.08080
H         -3.25680       -3.70230       -0.13730
