19
gdb 8293	5.77223	0.9579	0.89489	2.8665	73.93	-0.2589	0.0309	0.2899	1340.6416	0.165197	-365.075679	-365.067156	-365.066212	-365.10935	30.945
C         -0.27820        1.55480        0.10580
C          0.06710        0.06410        0.07090
C          0.46880       -0.42220       -1.32650
C          0.84380       -1.88910       -1.36250
C          1.56290       -2.43560       -2.61540
C          2.71490       -2.67120       -1.66210
N          3.86990       -3.14690       -1.77010
O          2.04940       -2.17320       -0.56110
H          0.57480        2.16590       -0.20940
H         -1.11480        1.78550       -0.56340
H         -0.56060        1.87330        1.11380
H          0.88910       -0.14550        0.76460
H         -0.79140       -0.52190        0.42470
H         -0.35840       -0.26620       -2.03310
H          1.31610        0.16850       -1.69900
H          0.02430       -2.51990       -1.00190
H          1.14460       -3.33980       -3.06000
H          1.76220       -1.70190       -3.39920
H          4.35570       -3.14220       -0.87150
