20
gdb 16700	3.32253	1.85385	1.59383	1.2352	74.29	-0.2559	0.0834	0.3392	910.5109	0.179002	-348.994633	-348.987231	-348.986287	-349.025716	29.93
C         -0.16960        1.51850        0.00940
C         -0.00030        0.00450        0.00550
C          1.12660       -0.59970       -0.89580
C          2.11480       -0.29550        0.26890
C          0.87040       -0.62820        1.14130
C          0.70030       -2.12770        0.85930
O         -0.58630       -2.55150        1.28210
C          0.90030       -2.11070       -0.69950
H          0.77260        2.05990        0.13340
H         -0.62110        1.85680       -0.93010
H         -0.83600        1.82760        0.82230
H         -0.98050       -0.46700       -0.11230
H          1.30170       -0.24400       -1.91270
H          2.99620       -0.93760        0.36840
H          2.41930        0.74880        0.33110
H          0.78380       -0.31720        2.18300
H          1.47740       -2.72020        1.36330
H         -0.70490       -3.46540        1.00610
H          0.00140       -2.47540       -1.20670
H          1.75340       -2.71360       -1.02580
