17
gdb 12709	2.87785	2.21645	1.72595	3.569	68.41	-0.2388	0.0322	0.2709	834.1913	0.142909	-363.878159	-363.870745	-363.869801	-363.90958	28.261
C         -0.02950        1.58710       -0.00140
C          0.02300        0.08010        0.05460
C         -1.29500       -0.73650        0.27260
C         -0.61300       -1.56330        1.40240
C          0.71460       -0.79210        1.16780
N          1.57250       -1.33800        0.11500
C          0.95670       -0.66690       -0.92580
O          1.09820       -0.70970       -2.11890
H          0.97250        2.02520        0.05150
H         -0.48350        1.91150       -0.94410
H         -0.62710        1.99780        0.81940
H         -2.11350       -0.11000        0.63510
H         -1.64760       -1.28950       -0.60050
H         -1.04450       -1.37680        2.38890
H         -0.55020       -2.64330        1.25040
H          1.24830       -0.37890        2.02510
H          2.08960       -2.20730        0.08730
