17
gdb 3055	8.66109	1.07618	1.0068	0.1749	72.82	-0.24	0.0622	0.3022	1186.746	0.1472	-272.549011	-272.540693	-272.539748	-272.583123	28.652
C         -0.03740        1.40950       -0.22180
C         -0.03380       -0.03070       -0.00660
C         -0.02340       -1.22180        0.16960
C         -0.03920       -2.66720        0.38470
C         -1.40630       -3.29560        0.15200
C         -1.82830       -3.69590       -1.23550
C         -1.50940       -4.75500       -0.20640
H          0.65450        1.69590       -1.02180
H         -1.03370        1.76760       -0.50480
H          0.26240        1.95060        0.68270
H          0.69190       -3.14710       -0.28050
H          0.29670       -2.88990        1.40690
H         -2.18630       -2.89780        0.79450
H         -2.86330       -3.55100       -1.52420
H         -1.11850       -3.54290       -2.04210
H         -0.58700       -5.31490       -0.32510
H         -2.32570       -5.33360        0.21160
