15
gdb 19451	5.40627	1.59576	1.58023	3.9934	69.71	-0.2495	-0.0176	0.232	831.9814	0.12122	-325.505419	-325.499301	-325.498357	-325.535499	24.468
N         -0.09490       -1.16410       -0.11590
C         -0.05060       -0.00990       -0.05160
C         -0.00720        1.44340        0.01770
C          0.00010        2.07410        1.47220
C          1.51780        1.68880        1.52010
C          1.43550        2.10080        0.01080
C          1.03370        3.57560        0.14290
C          0.09790        3.55810        1.09580
H         -0.72780        1.87110       -0.68230
H         -0.71530        1.75770        2.22880
H          2.16080        2.29220        2.16260
H          1.69360        0.62090        1.67320
H          2.18460        1.81170       -0.72360
H          1.43620        4.39790       -0.43030
H         -0.48280        4.36220        1.52360
