18
gdb 15016	3.89328	1.56047	1.31488	1.5756	64.53	-0.2526	0.0748	0.3275	979.0811	0.1544	-422.069681	-422.061772	-422.060828	-422.102072	29.087
O         -0.01140        1.45140        0.00920
C         -0.02520        0.04040        0.00230
C         -1.46190       -0.45260        0.01350
O         -2.08630       -0.00970        1.19130
C         -3.43550       -0.44620        1.27210
C         -4.22040        0.01370        0.04250
C         -3.45930       -0.43290       -1.20680
O         -2.10870        0.00280       -1.14730
H          0.90620        1.73710        0.00430
H          0.45610       -0.37440       -0.89650
H          0.47300       -0.38340        0.88760
H         -1.45420       -1.56390        0.00750
H         -3.46900       -1.54750        1.34980
H         -3.84080       -0.03030        2.19810
H         -5.23220       -0.40700        0.05000
H         -4.29860        1.10550        0.04910
H         -3.49450       -1.53340       -1.29560
H         -3.88240       -0.00730       -2.12040
