18
gdb 18798	3.14501	2.9529	2.30178	0.2501	75.01	-0.2276	0.0215	0.2491	708.3212	0.157699	-310.638923	-310.633405	-310.632461	-310.667971	24.498
C         -0.03210        1.54710        0.08730
C          1.53360        1.46680       -0.01110
C          2.02000        1.25460        1.39890
C          1.54940        0.15530        1.99290
C          0.79250       -0.77770        1.08400
C          1.80330       -1.17960       -0.04920
C          1.33990        0.08030       -0.78320
C         -0.02640        0.02170       -0.03250
H         -0.45240        2.03210        0.97260
H         -0.46690        1.98190       -0.81880
H          2.05370        2.26190       -0.54610
H          2.63270        1.99950        1.89530
H          1.75520       -0.11500        3.02310
H          0.26540       -1.57690        1.60590
H          2.85180       -1.30050        0.23700
H          1.46030       -2.06550       -0.59400
H          1.42620        0.16290       -1.86810
H         -0.89750       -0.51580       -0.41130
