19
gdb 3970	3.05861	1.47792	1.26798	1.3718	70.74	-0.2429	0.013	0.2558	1052.7565	0.161039	-402.167398	-402.15732	-402.156375	-402.201781	36.845
C         -0.30980        1.44770        0.00390
C         -0.16690       -0.05000        0.03300
N         -0.13450       -0.74150        1.10530
O         -0.23230        0.06850        2.24780
C         -0.00890       -0.81020       -1.28030
C          1.39100       -0.52660       -1.86000
C         -0.23640       -2.31670       -1.12220
O         -1.01010       -0.25340       -2.14520
H         -0.42060        1.80900       -1.01700
H         -1.18440        1.74690        0.58860
H          0.55650        1.92370        0.47620
H         -0.21970       -0.58250        2.95720
H          2.17310       -0.92250       -1.20570
H          1.49590       -1.00560       -2.84080
H          1.55140        0.54710       -1.98810
H         -1.24330       -2.50920       -0.74700
H         -0.12380       -2.80680       -2.09650
H          0.47930       -2.75980       -0.42760
H         -0.90490       -0.66650       -3.00860
