13
gdb 2526	3.90626	2.07715	1.45287	2.2647	52.12	-0.2513	-0.0542	0.197	801.6864	0.09774	-381.585428	-381.577564	-381.576619	-381.617877	25.801
C         -0.27890        1.39500        0.02600
O          0.13520        0.04340        0.15840
C          0.70530       -0.51210       -0.98320
C          1.46260       -1.77420       -0.56710
O          2.05910       -2.47260       -1.34180
C         -0.29630       -0.87620       -2.08960
O         -1.46030       -0.58550       -2.05590
H          0.56170        2.03520       -0.28210
H         -1.09750        1.49710       -0.69250
H         -0.62070        1.71340        1.01270
H          1.45110        0.15640       -1.45710
H          1.39170       -1.98320        0.52080
H          0.16260       -1.44120       -2.92820
