13
gdb 18841	4.26966	2.53007	2.09123	1.9897	62.15	-0.2486	-0.0335	0.2152	658.2855	0.097919	-357.591031	-357.585643	-357.584699	-357.620301	21.776
N         -0.04020        1.21610       -0.19180
C         -0.04200       -0.02990       -0.05570
C         -1.07580       -1.06380        0.11580
C         -0.58860       -2.39490       -0.55130
N          0.39220       -2.31460       -1.62290
C          1.29800       -1.54570       -1.17120
N          1.08140       -1.01140        0.16740
C          0.02270       -1.94370        0.71420
H          0.91230        1.58500       -0.19130
H         -2.11110       -0.93260        0.39700
H         -1.32280       -3.18840       -0.59750
H          2.16250       -1.21490       -1.73490
H          0.11820       -2.40840        1.68620
