16
gdb 20804	3.12564	1.83502	1.26008	1.3152	67.2	-0.2046	0.0263	0.2309	965.0519	0.131525	-379.941971	-379.933825	-379.93288	-379.975849	29.08
C          0.12710        1.58530       -0.13250
C          0.00410        0.05590       -0.00000
C          0.64310       -0.49450        1.23350
C          0.11610       -0.79390        2.47710
O         -1.20070       -0.63840        2.80510
C          1.19900       -1.25440        3.25500
N          2.33330       -1.24790        2.55370
N          1.97270       -0.78240        1.34850
H          1.17590        1.89720       -0.16580
H         -0.36000        1.93630       -1.04770
H         -0.34210        2.08540        0.71940
H         -1.05410       -0.22380        0.01700
H          0.43660       -0.42560       -0.88650
H         -1.34220       -0.99180        3.68780
H          1.19770       -1.59050        4.28240
H          2.67260       -0.70070        0.63070
