18
gdb 8031	3.4387	1.89385	1.5021	3.0439	67.54	-0.2393	0.0589	0.2981	894.582	0.153093	-384.900171	-384.892313	-384.891368	-384.932218	29.721
C         -0.20000        1.55190       -0.00110
C          0.04310        0.06140        0.00160
C         -1.12480       -0.90440        0.26500
O         -0.32270       -1.70610        1.16020
C          0.75750       -0.75700        1.13200
C          1.88900       -1.12810        0.15830
O          2.24270       -2.48400        0.15660
C          1.05870       -0.53520       -1.02610
H          0.74150        2.11190        0.00340
H         -0.75550        1.85560       -0.89700
H         -0.78130        1.86410        0.87320
H         -1.97510       -0.44910        0.79340
H         -1.50050       -1.47950       -0.59060
H          1.01790       -0.39500        2.13150
H          2.75580       -0.48010        0.36660
H          2.95530       -2.60980       -0.47780
H          0.62630       -1.30040       -1.67620
H          1.58740        0.19870       -1.63980
