15
gdb 10475	3.31197	1.29255	1.00201	2.2474	77.91	-0.2332	0.0182	0.2513	1175.9833	0.116267	-325.434915	-325.426038	-325.425093	-325.469848	31.09
C         -0.01910        1.44890        0.00860
C          0.00680       -0.00590        0.01700
C          0.03710       -1.21010        0.02230
C          0.06220       -2.65270        0.00920
C         -0.53160       -3.37360        1.19220
N         -1.24450       -3.37870       -0.08000
C          1.15450       -3.26090       -0.71370
C          2.07900       -3.76070       -1.29550
H          0.89730        1.85200       -0.43600
H         -0.86500        1.82960       -0.57430
H         -0.10260        1.85410        1.02300
H         -0.10000       -4.32770        1.47880
H         -0.89290       -2.75530        2.00870
H         -1.98680       -2.68240       -0.06530
H          2.88970       -4.20310       -1.81920
