15
gdb 15754	5.20583	1.05488	0.99404	1.2007	64.32	-0.2576	-0.0459	0.2117	1159.4309	0.117249	-399.794963	-399.786799	-399.785855	-399.829237	27.831
O          0.44150       -0.11330        0.33580
C          0.24840        0.92310       -0.24040
C          0.98150        2.21800        0.09020
C          1.34820        2.98970       -1.17020
O          0.53530        3.15950       -2.05790
C          2.74070        3.51490       -1.28450
C          3.46490        3.18120       -2.55980
N          2.99410        4.53310       -2.31170
H         -0.48730        1.01900       -1.06420
H          0.27490        2.84700        0.65120
H          1.83590        2.00510        0.73570
H          3.31020        3.61500       -0.36580
H          4.54110        3.04130       -2.52060
H          2.93220        2.56430       -3.27810
H          2.11430        4.66960       -2.81180
