13
gdb 5001	3.33735	2.43207	1.41905	2.4644	64.11	-0.2485	-0.0747	0.1738	815.074	0.095884	-398.651923	-398.64521	-398.644265	-398.682901	24.677
C         -0.03320        1.50430       -0.00830
C         -0.00960        0.00800       -0.05170
N         -0.04480       -0.62570       -1.17970
C         -0.02070       -2.00460       -1.15650
C          0.03770       -2.69160       -0.00240
O          0.07570       -2.06630        1.19230
C          0.05540       -0.68030        1.25890
O          0.08970       -0.14810        2.33440
H          0.85830        1.88690        0.50040
H         -0.08240        1.90080       -1.02270
H         -0.89110        1.85730        0.57400
H         -0.05080       -2.51720       -2.10950
H          0.05960       -3.77020        0.09150
