15
gdb 12042	3.97845	1.73762	1.53725	3.3107	65.23	-0.252	0.0159	0.2679	848.1231	0.119967	-358.795299	-358.788053	-358.787109	-358.826552	27.356
N         -0.09420        1.48010        0.01640
C         -0.04220        0.02170        0.00810
C          0.19200       -0.65370        1.39970
N         -1.11550       -1.39010        1.34240
C         -2.15510       -0.35040        1.24570
C         -1.40480       -0.69340        0.02450
C          0.84950       -0.51310       -1.03210
N          1.56300       -0.88050       -1.86520
H          0.84320        1.85650        0.13630
H         -0.42760        1.82180       -0.88200
H          1.02460       -1.35710        1.41070
H          0.27720        0.05110        2.23170
H         -3.15900       -0.75390        1.33130
H         -1.99430        0.61400        1.71870
H         -1.82910       -1.21830       -0.82410
