17
gdb 16030	3.30613	1.74137	1.41466	4.4661	74.04	-0.2652	0.0197	0.2849	932.3373	0.143228	-326.721329	-326.713825	-326.712881	-326.752883	28.493
C         -0.03450        1.54820        0.03680
C          0.09290        0.04090        0.05520
C          1.34010       -0.74070       -0.22750
C          2.59680       -0.05670        0.32400
C          1.97140       -0.05530        1.75420
C          0.71460       -0.75040        1.19440
C          0.00760       -1.79610        1.85600
N         -0.56010       -2.64520        2.40250
H          0.85560        2.05270        0.41910
H         -0.19930        1.90070       -0.98680
H         -0.88700        1.87080        0.64300
H         -0.78850       -0.46840       -0.32860
H          1.34080       -1.55750       -0.93900
H          3.47890       -0.69630        0.26630
H          2.84470        0.91490       -0.11240
H          2.51850       -0.69700        2.44580
H          1.80360        0.91300        2.23280
