14
gdb 3395	4.60945	2.50717	2.19717	3.7781	57.48	-0.2446	0.0088	0.2534	648.859	0.114166	-324.57086	-324.564641	-324.563697	-324.600734	23.542
C          0.05460        1.55430        0.06530
C          0.10270        0.04310        0.05590
C          1.32590       -0.78520       -0.20500
N          2.54230       -0.20600        0.37130
C          1.97980       -0.15460        1.66320
O          2.40320        0.27550        2.69780
C          0.69650       -0.81840        1.18150
H          0.97980        1.99260        0.44830
H         -0.11030        1.94060       -0.94630
H         -0.76440        1.91010        0.69810
H         -0.80000       -0.42020       -0.34180
H          1.39430       -1.58850       -0.92700
H          3.05570        0.56620       -0.03890
H          0.13970       -1.60290        1.67370
