16
gdb 16949	3.87833	2.06625	1.88801	1.7612	64.6	-0.2378	0.0083	0.246	778.9727	0.131972	-383.734293	-383.727838	-383.726894	-383.764689	25.355
C         -0.02260        1.49020        0.05290
C         -0.08360        0.00490       -0.02980
C         -0.08450       -0.82860       -1.07470
C          0.02050       -2.22270       -0.47570
C          1.46240       -2.33180        0.11890
O          1.39810       -1.39940        1.20490
C          0.02310       -0.93830        1.17450
O         -0.70020       -2.07180        0.76520
H          0.90030        1.81140        0.55200
H         -0.05040        1.95030       -0.93840
H         -0.85610        1.89380        0.64130
H         -0.01990       -0.59120       -2.12800
H         -0.33980       -3.07580       -1.04640
H          1.65690       -3.33680        0.50810
H          2.24530       -2.04710       -0.59100
H         -0.26430       -0.59170        2.16570
