13
gdb 7020	7.499	1.00438	0.89062	7.8525	62.4	-0.2627	-0.0327	0.23	1193.4883	0.094762	-394.813656	-394.805285	-394.804341	-394.84856	27.765
N          0.35740        1.24310        0.00380
C          0.07210        0.01200        0.00160
N         -1.23290       -0.49260        0.01110
C         -2.43320        0.20860        0.02630
O         -2.54590        1.40210        0.03440
C         -3.64130       -0.75960        0.03170
C         -4.92000       -0.06260        0.04880
N         -5.95340        0.45090        0.06230
H          1.36910        1.36330       -0.00470
H          0.79350       -0.81500       -0.00820
H         -1.29740       -1.49850        0.00640
H         -3.59620       -1.40620       -0.85330
H         -3.57920       -1.41800        0.90690
