9
gdb 1016	9.63697	2.10471	1.72744	4.7347	52.55	-0.2753	-0.0673	0.208	640.2059	0.057098	-338.268974	-338.263825	-338.262881	-338.298006	18.031
N          0.09900       -1.10860       -0.00480
C          0.00990        0.04450        0.00280
C         -0.09400        1.45930        0.01210
N         -1.17450        2.18100        0.03060
C         -0.71180        3.48190        0.03150
C          0.64650        3.47010        0.01320
O          1.05980        2.17650        0.00040
H         -1.38450        4.32400        0.04520
H          1.41750        4.22110        0.00700
