18
gdb 15947	3.51851	1.74659	1.43286	2.4986	67.27	-0.2388	0.0588	0.2976	918.7502	0.153853	-384.89636	-384.888579	-384.887634	-384.928803	28.871
O         -0.06940        1.42070        0.16720
C          0.00650        0.00020        0.17320
C         -1.39410       -0.52350        0.00590
C         -2.39490       -0.37140        1.18910
C         -2.73310       -1.89390        1.10550
C         -1.78460       -2.02800       -0.10710
O         -2.44530       -1.80190       -1.36780
C         -2.06030       -0.40540       -1.37740
H          0.82000        1.77220        0.27000
H          0.64370       -0.36990       -0.64690
H          0.43590       -0.37270        1.11790
H         -1.91120       -0.07840        2.12390
H         -3.22330        0.31680        1.00560
H         -2.40400       -2.46070        1.98100
H         -3.76900       -2.15740        0.88200
H         -1.08570       -2.86940       -0.14870
H         -2.92340        0.26670       -1.45300
H         -1.36500       -0.18850       -2.19920
