16
gdb 15236	3.06664	1.54241	1.35213	3.6471	65.94	-0.251	0.0085	0.2595	963.8029	0.129578	-379.889901	-379.881308	-379.880364	-379.923133	30.288
C         -1.77140        0.77060       -0.97620
N         -0.81480       -0.28570       -0.64700
C          0.44170       -0.38620       -1.36520
C          0.83610        0.56110       -2.48040
O          0.07240        0.33160       -3.65520
C          0.41680        0.04050        0.08180
C          0.73860        1.40560        0.42280
N          0.98140        2.49750        0.71930
H         -1.33640        1.77300       -1.07510
H         -2.25200        0.50680       -1.92050
H         -2.52770        0.80460       -0.18760
H          0.74650       -1.41950       -1.54170
H          0.65700        1.60140       -2.20220
H          1.91540        0.45870       -2.66910
H          0.27750       -0.55110       -3.98090
H          0.69770       -0.67260        0.85270
