19
gdb 5844	3.1651	1.46539	1.29213	2.6648	68.82	-0.2321	0.0374	0.2695	1059.1315	0.162916	-402.242891	-402.232929	-402.231985	-402.27746	35.608
C          0.02930        1.45290        0.13240
N         -0.10010        0.01450        0.22720
C         -1.23230       -0.64490       -0.12150
O         -2.25650       -0.10480       -0.50970
C         -1.13010       -2.18860       -0.01950
C         -2.35860       -2.72230        0.72020
C         -1.04200       -2.74700       -1.44340
O          0.08010       -2.58790        0.64330
H          0.79260        1.74020       -0.60000
H         -0.93640        1.84640       -0.18860
H          0.29330        1.89400        1.10000
H          0.68440       -0.56280        0.48750
H         -3.26870       -2.36200        0.23840
H         -2.35270       -3.81600        0.72530
H         -2.37390       -2.36640        1.75800
H         -0.11420       -2.41910       -1.92110
H         -1.04940       -3.84020       -1.41890
H         -1.88640       -2.38940       -2.03590
H         -0.09130       -2.58950        1.59110
