16
gdb 13205	5.64768	1.1003	1.05577	2.427	61.51	-0.2599	-0.0399	0.2199	1118.5507	0.129345	-420.860719	-420.852544	-420.851599	-420.895033	28.196
O          0.27160        1.33370        0.05460
C          0.09510       -0.04240       -0.06860
C         -1.36590       -0.43750        0.06190
O         -2.20420        0.42770        0.21570
C         -1.71480       -1.90340        0.01930
C         -2.33400       -2.48080        1.32820
O         -3.52450       -2.89670        0.64410
C         -3.09180       -2.27550       -0.58150
H         -0.62330        1.69350        0.16580
H          0.45530       -0.41500       -1.04430
H          0.67070       -0.59450        0.69470
H         -0.88070       -2.49710       -0.35950
H         -1.79150       -3.32230        1.77300
H         -2.54040       -1.72590        2.09660
H         -3.70310       -1.40380       -0.83860
H         -3.07030       -2.98250       -1.41770
