24
gdb 6416	2.60461	1.29502	1.0344	0.9905	82.38	-0.2428	0.0807	0.3235	1306.1697	0.220166	-351.420189	-351.409388	-351.408443	-351.456014	39.115
C         -0.31140        1.58070       -0.30230
C          0.35930        0.21780       -0.12140
C          1.02070       -0.31230       -1.39630
C          1.76860       -1.62550       -1.14730
O         -0.01310       -0.49450       -2.36040
C          0.37940       -0.43570       -3.72940
C         -0.63320       -1.26650       -4.51160
C          0.43960        1.01300       -4.22350
H          0.41870        2.34790       -0.58530
H         -1.06890        1.53140       -1.08820
H         -0.79560        1.90900        0.62250
H          1.12060        0.27160        0.66620
H         -0.38130       -0.52220        0.20710
H          1.73540        0.44450       -1.75950
H          1.08170       -2.38140       -0.75310
H          2.21110       -2.01610       -2.06860
H          2.57810       -1.48080       -0.42420
H          1.37500       -0.89170       -3.84650
H         -0.63970       -2.29930       -4.15340
H         -1.63900       -0.85430       -4.38060
H         -0.39620       -1.26620       -5.57990
H          1.14600        1.60800       -3.63710
H          0.75870        1.05220       -5.27040
H         -0.54740        1.47990       -4.14450
