16
gdb 7570	3.34736	1.79954	1.43805	4.102	60.67	-0.2403	0.0222	0.2625	888.2534	0.13113	-417.060582	-417.052449	-417.051505	-417.093583	29.753
N         -0.06800        1.37470        0.03900
C          0.08320        0.02700       -0.02000
O          1.16120       -0.53700       -0.06420
C         -1.23370       -0.75790       -0.05690
N         -2.36230        0.06320        0.36950
C         -1.48970       -1.47090       -1.41320
O         -1.54290       -2.76240       -0.78880
C         -1.12760       -2.21250        0.47990
H          0.75040        1.95490       -0.04030
H         -0.99250        1.76850       -0.03210
H         -3.23560       -0.41790        0.17500
H         -2.33070        0.20670        1.37620
H         -2.43260       -1.19570       -1.90350
H         -0.66480       -1.39110       -2.13010
H         -0.10950       -2.51220        0.74440
H         -1.82730       -2.46090        1.28760
