17
gdb 18563	3.68195	1.99491	1.62581	3.7309	67.56	-0.2425	0.0361	0.2785	830.6742	0.145115	-363.90712	-363.900417	-363.899473	-363.938002	26.219
O         -0.04130       -0.00460        0.05470
C         -0.02180        1.19700        0.02190
N         -1.01440        2.14810       -0.00160
C         -0.11940        3.31390        0.04320
C         -0.03990        4.04350        1.39040
C          0.75810        3.09140        2.30490
C          1.80720        2.45960        1.36580
C          1.07410        2.29500        0.02610
H         -2.01550        2.06430        0.10570
H         -0.23270        3.97790       -0.81760
H          0.51330        4.97960        1.24580
H         -1.02470        4.30730        1.78850
H          1.20780        3.60460        3.15860
H          0.09870        2.31490        2.70690
H          2.65680        3.13980        1.23540
H          2.20040        1.50990        1.73890
H          1.72010        2.28570       -0.85220
