14
gdb 8648	2.56463	1.82316	1.39048	4.5327	63.69	-0.2747	-0.0018	0.2729	926.6748	0.105481	-378.678922	-378.670341	-378.669397	-378.711715	31.122
N         -0.18880        1.40440        0.15430
C          0.08590       -0.01180       -0.06430
C          0.83680       -0.55160        1.19620
O          0.14130       -0.15270        2.35200
C          0.93800       -2.01030        1.14230
C          1.00700       -3.20450        1.05020
C          2.20850        0.04210        1.19520
N          3.24050        0.56130        1.16750
H          0.60460        1.98000       -0.10770
H         -0.99040        1.71300       -0.38120
H         -0.86140       -0.55390       -0.11320
H          0.66790       -0.24370       -0.96480
H         -0.20040        0.73100        2.11880
H          1.07580       -4.26310        0.98870
