22
gdb 13282	6.37694	0.82797	0.77094	0.8245	80.12	-0.2482	0.0915	0.3397	1556.4729	0.199703	-350.191558	-350.182261	-350.181317	-350.226488	33.222
C         -0.09520        1.49370       -0.13350
C         -0.02820       -0.01420        0.04220
O         -1.33960       -0.53400       -0.01080
C         -1.39500       -1.93580        0.14650
C         -2.83840       -2.38050        0.05410
C         -3.56280       -2.30010       -1.31860
C         -4.22700       -3.66850       -1.00560
C         -3.13970       -3.90540        0.07860
H          0.90840        1.92810       -0.09840
H         -0.55070        1.74740       -1.09500
H         -0.69780        1.94560        0.65960
H          0.59430       -0.46810       -0.74830
H          0.44460       -0.27070        1.00610
H         -0.79520       -2.43420       -0.63680
H         -0.96180       -2.23260        1.11900
H         -3.42000       -1.85910        0.82180
H         -4.21370       -1.44240       -1.49990
H         -2.84980       -2.37420       -2.14650
H         -5.21930       -3.54620       -0.56200
H         -4.30010       -4.39700       -1.81650
H         -2.29750       -4.48430       -0.31580
H         -3.44800       -4.34890        1.02850
