20
gdb 8035	3.26591	1.84134	1.46242	1.1851	74.38	-0.2429	0.0785	0.3213	945.5003	0.176754	-348.982303	-348.974199	-348.973254	-349.014398	31.665
C          0.15550        1.63540       -0.03420
C          0.04130        0.11950        0.02210
C          0.89800       -0.74850       -0.95500
C          1.23830       -1.71900        0.22220
O          0.69670       -3.00820        0.14750
C          2.64030       -1.52650        0.84260
C          2.07820       -0.32460        1.66290
C          0.62530       -0.68010        1.21720
H          1.19460        1.97140        0.04710
H         -0.23760        2.02050       -0.98190
H         -0.41150        2.10710        0.77640
H         -1.01130       -0.16330       -0.08870
H          0.34410       -1.21380       -1.77430
H          1.77000       -0.23080       -1.36830
H          1.10260       -3.46200       -0.59990
H          2.89390       -2.37510        1.48400
H          3.47450       -1.33140        0.16100
H          2.24900       -0.38930        2.73900
H          2.42900        0.65390        1.32700
H         -0.05560       -0.97270        2.01740
