14
gdb 12059	4.55055	1.61886	1.50379	2.9867	58.3	-0.2579	-0.0471	0.2108	839.5593	0.105343	-419.636223	-419.629225	-419.628281	-419.667422	26.35
O         -0.07370        1.45350       -0.04180
C         -0.04990        0.07220        0.02340
C          0.24510       -0.61550        1.43200
C         -1.08940       -1.34890        1.29520
O         -2.09570       -0.33900        1.22470
C         -1.41050       -0.67550        0.02270
C          0.88350       -0.49650       -1.01890
O          1.50470        0.21620       -1.77050
H          0.54840        1.69810       -0.74670
H          1.13150       -1.25510        1.43620
H          0.28960        0.10170        2.25250
H         -1.37770       -2.32780        1.65670
H         -2.01520       -0.97540       -0.82590
H          0.97390       -1.60080       -1.05260
