24
gdb 5891	3.88352	0.93028	0.91649	0.926	82.62	-0.2439	0.081	0.3248	1466.7759	0.219822	-351.417561	-351.406634	-351.40569	-351.453662	39.508
C         -0.10670        1.48750       -0.14290
C          0.00870       -0.03110        0.00790
C          0.75870       -0.43750        1.27190
O          0.80570       -1.84920        1.30960
C          1.46540       -2.48830        2.41260
C          0.77300       -2.15300        3.74410
C          1.31040       -3.98080        2.10210
C          2.95580       -2.11300        2.46200
H          0.88040        1.96060       -0.19360
H         -0.64780        1.75280       -1.05580
H         -0.64350        1.93360        0.70180
H         -0.98700       -0.48860        0.03290
H          0.52680       -0.46190       -0.85660
H          1.77010       -0.00160        1.25770
H          0.24300       -0.02850        2.15510
H         -0.29920       -2.36070        3.67630
H          1.19010       -2.76150        4.55260
H          0.90440       -1.10380        4.02450
H          1.77790       -4.21630        1.14200
H          1.77750       -4.59300        2.87900
H          0.25100       -4.24410        2.03810
H          3.10830       -1.06370        2.73130
H          3.47560       -2.72060        3.20940
H          3.42380       -2.29130        1.48910
