19
gdb 1120	4.73278	1.48466	1.31265	2.4533	67.94	-0.2422	-0.0085	0.2337	1002.4251	0.168505	-310.955296	-310.946184	-310.94524	-310.98921	31.985
C          0.12210        1.65870       -0.08880
C          0.04020        0.12730       -0.02070
C          0.69130       -0.51700       -1.25100
C          0.66970       -0.41070        1.27130
C         -0.11440       -0.10970        2.54420
C          0.59540       -0.41640        3.85230
O         -1.24020        0.33420        2.52200
H          1.16650        1.99570       -0.09860
H         -0.35310        2.03440       -1.00080
H         -0.38060        2.11850        0.76530
H         -1.02030       -0.14970        0.00060
H          1.76090       -0.27980       -1.30380
H          0.59350       -1.60800       -1.23380
H          0.22790       -0.15400       -2.17430
H          0.76580       -1.50620        1.22270
H          1.69870       -0.04290        1.39280
H          1.43140        0.27970        3.98950
H         -0.09940       -0.31260        4.68660
H          1.02220       -1.42510        3.84130
