13
gdb 17762	3.12426	2.7657	1.90478	0.8787	56.5	-0.2088	0.0552	0.264	698.8949	0.094251	-398.450588	-398.444263	-398.443319	-398.480592	25.175
O         -0.16330        1.35700       -0.04060
C         -0.00470        0.00470       -0.03270
C          0.91540       -0.98490       -0.81830
C         -0.16710       -2.00800       -0.82830
N          0.82970       -1.98940        0.29980
C         -0.07520       -1.03960        1.07740
C         -1.11090       -1.04080       -0.04300
O         -2.45200       -0.80610       -0.06200
H          0.54960        1.75730        0.47120
H          1.80170       -0.87070       -1.43350
H         -0.32490       -2.88070       -1.45330
H         -0.14040       -0.98130        2.15710
H         -2.89690       -1.50000        0.43910
