16
gdb 10286	2.19044	1.8957	1.31016	1.5602	67.68	-0.2396	-0.0311	0.2085	1001.6533	0.125664	-383.704926	-383.69529	-383.694346	-383.740101	32.729
C          0.63210        0.73120        0.56730
O          0.11190       -0.51540        0.13850
C         -1.27500       -0.46220       -0.15550
C         -1.64760       -1.63860       -0.93210
C         -2.00520       -2.60790       -1.54540
C         -2.12950       -0.40100        1.14880
C         -1.81870       -1.44950        2.19240
O         -2.97030        0.45290        1.27990
H          1.69970        0.58220        0.73970
H          0.49490        1.50690       -0.19990
H          0.16560        1.08140        1.49940
H         -1.52070        0.44970       -0.72050
H         -2.30930       -3.46000       -2.10230
H         -2.05080       -2.44100        1.78890
H         -0.74990       -1.44910        2.42350
H         -2.40880       -1.26540        3.09020
