20
gdb 19688	4.43869	1.58758	1.47226	0.2332	77.52	-0.2424	0.0866	0.329	955.2551	0.178623	-311.821412	-311.814232	-311.813288	-311.852786	28.727
C         -0.15500        1.53090       -0.01430
C          0.04660        0.01340        0.06200
C          0.66470       -0.56950       -1.20570
C          0.79310       -2.07960       -1.40850
C         -0.49490       -2.58060       -2.08810
C         -1.40840       -1.37700       -2.30610
C         -0.10480       -0.57320       -2.56870
C          0.61030       -1.94820       -2.89950
H          0.79470        2.04780       -0.19270
H         -0.83450        1.80060       -0.83020
H         -0.57910        1.92580        0.91410
H          0.70270       -0.22700        0.90940
H         -0.90870       -0.47800        0.27820
H          1.64730       -0.11020       -1.37560
H          1.44080       -2.77040       -0.88220
H         -0.76570       -3.62810       -2.04730
H         -1.98770       -1.49120       -3.22690
H         -2.07320       -1.04590       -1.50050
H         -0.11700        0.31320       -3.19980
H          1.19560       -2.30210       -3.73530
