17
gdb 3387	5.19751	2.10665	2.01691	1.0961	63.97	-0.2385	0.0879	0.3264	733.924	0.14887	-309.673895	-309.667043	-309.666099	-309.70461	25.538
C          0.08630        1.06420       -0.32020
O         -0.13080       -0.03410        0.54170
C         -1.34930       -0.66890        0.30700
C         -1.54120       -1.67850       -0.78960
C         -0.25090       -2.47890       -1.01320
C         -0.24670       -2.88900        0.49290
C         -1.53720       -2.08780        0.70890
H          1.06680        1.47950       -0.07530
H          0.07550        0.76090       -1.37690
H         -0.67560        1.84630       -0.17840
H         -2.21760       -0.02790        0.47810
H         -2.37180       -1.61860       -1.48400
H         -0.39820       -3.33530       -1.67430
H          0.61160       -1.90670       -1.36670
H         -0.39360       -3.96240        0.62820
H          0.61210       -2.56700        1.08630
H         -2.36160       -2.39080        1.34430
