16
gdb 7465	3.94207	1.17825	1.05303	3.1517	69.74	-0.2472	0.0283	0.2754	1164.8325	0.127927	-383.686368	-383.677324	-383.67638	-383.722037	30.724
C          0.07480        1.51460       -0.06570
C          0.03630        0.05990       -0.03620
C         -0.01010       -1.14390       -0.01040
C         -0.01480       -2.59840        0.01000
O          0.73690       -3.14730       -1.05590
C          0.22800       -3.24580        1.41110
O         -1.13010       -3.71490        1.47670
C         -1.40020       -3.28650        0.13050
H          0.91970        1.90390        0.51250
H          0.17060        1.88780       -1.09110
H         -0.84180        1.93950        0.35760
H          1.48030       -2.55960       -1.22630
H          0.95510       -4.06610        1.36180
H          0.47320       -2.56600        2.23360
H         -2.27830       -2.63690        0.06530
H         -1.49440       -4.12610       -0.56880
