13
gdb 11681	5.08718	1.55446	1.35691	2.5434	68.31	-0.2566	-0.0059	0.2507	885.7712	0.094402	-361.395436	-361.38861	-361.387666	-361.426337	26.212
N         -0.02550        1.17610       -0.07540
C         -0.05490       -0.07070        0.02240
O          0.98550       -0.98890        0.18540
C          0.04500       -2.09530        0.01510
C         -0.93890       -2.05570        1.13960
C         -1.12330       -1.10990       -0.04230
C          0.41240       -3.19750       -0.79340
C          0.72690       -4.14210       -1.46750
H          0.92900        1.53290       -0.00790
H         -1.64940       -2.87510        1.17010
H         -0.61570       -1.67370        2.10260
H         -2.00340       -1.10090       -0.66740
H          1.00730       -4.97290       -2.06710
