16
gdb 16972	3.43322	2.2147	2.00571	2.3303	58.49	-0.2499	0.0657	0.3156	741.2095	0.132939	-420.876247	-420.869894	-420.86895	-420.906583	25.168
O         -0.01230        1.44890       -0.03020
C          0.02700        0.03680        0.03970
C          0.59940       -0.56160        1.36670
C         -0.62480       -1.36120        1.84930
O         -1.59000       -0.46240        2.38000
C         -2.19020        0.14710        1.21970
C         -1.41230       -0.53110        0.07860
O         -1.19290       -1.83450        0.63650
H          0.89120        1.77690       -0.05500
H          0.55240       -0.37890       -0.82920
H          1.45900       -1.21350        1.19130
H          0.87510        0.22250        2.07510
H         -0.45830       -2.17880        2.54990
H         -3.25750       -0.09710        1.18960
H         -2.05140        1.22980        1.24060
H         -1.92460       -0.60010       -0.87900
