14
gdb 14429	4.30131	1.90528	1.70994	2.2999	55.97	-0.2379	0.0611	0.299	766.2542	0.1072	-419.59443	-419.588083	-419.587139	-419.624579	25.458
O          0.02750        1.42350        0.00810
C          0.00890        0.02930       -0.00540
C         -1.32080       -0.73180       -0.07190
C         -1.63320       -0.79090       -1.58920
O         -0.60330       -0.06100       -2.26670
C          0.34930       -0.67270       -1.34910
C         -0.71520       -1.79260       -0.96840
O         -0.68690       -3.14550       -0.79630
H         -0.35990        1.69430       -0.83560
H          0.63460       -0.33540        0.81240
H         -2.09190       -0.84420        0.67870
H         -2.62570       -0.83450       -2.01600
H          1.35560       -0.75260       -1.75450
H         -0.59220       -3.56450       -1.66010
