19
gdb 13275	6.75521	0.87623	0.82042	2.0815	76.24	-0.2463	0.0315	0.2778	1449.0692	0.165077	-365.063694	-365.054912	-365.053968	-365.09843	30.774
C          0.08020        1.66200       -0.06510
C          0.02610        0.73860       -1.28410
C          0.49830       -0.68370       -0.96570
N          0.50940       -1.50140       -2.17520
C         -0.06670       -2.60900       -2.17790
C         -0.28570       -3.70380       -3.20190
C         -1.05160       -4.39330       -2.05480
O         -0.75970       -3.27180       -1.16940
H         -0.55320        1.28840        0.74740
H          1.10090        1.74550        0.32520
H         -0.26250        2.67050       -0.31570
H         -0.99780        0.69230       -1.67480
H          0.64670        1.13840       -2.09410
H          1.52740       -0.63900       -0.58360
H         -0.12240       -1.11660       -0.16910
H         -0.87940       -3.40900       -4.06880
H          0.62420       -4.20390       -3.53790
H         -2.12900       -4.51180       -2.19490
H         -0.61770       -5.31920       -1.66900
