20
gdb 14986	4.4164	1.33836	1.09765	1.2406	77.2	-0.2419	0.022	0.2639	1128.2815	0.178134	-349.013362	-349.005286	-349.004341	-349.045895	30.522
C          0.05150        1.57360        0.15220
C         -0.00110        0.05120       -0.00770
C          0.66340       -0.47330       -1.29580
C          0.82640       -1.99840       -1.24000
O          1.27230       -2.52900       -2.47510
C          0.32570       -2.36160       -3.51150
C         -0.28990       -0.99040       -3.53350
C         -0.11350       -0.12010       -2.54190
H          1.08630        1.93330        0.16060
H         -0.47100        2.08960       -0.65960
H         -0.41680        1.88470        1.09120
H          0.49740       -0.41350        0.85340
H         -1.04410       -0.29000        0.02170
H          1.66730       -0.02580       -1.36110
H          1.57600       -2.28600       -0.49650
H         -0.13390       -2.45800       -0.94770
H          0.86190       -2.55650       -4.44840
H         -0.46980       -3.12760       -3.43850
H         -0.88930       -0.74050       -4.40540
H         -0.55180        0.87250       -2.60450
