13
gdb 14596	5.356	0.81834	0.72636	3.2844	77.48	-0.2588	-0.037	0.2218	1454.2544	0.09312	-361.394156	-361.385654	-361.384709	-361.428363	28.976
N         -0.33170        1.08930       -0.09750
C         -0.48490       -0.14180        0.11990
O         -0.38330       -1.01820       -0.90720
C         -0.59040       -2.39320       -0.57820
C         -1.98330       -2.72020       -0.29920
C         -3.13950       -2.98650       -0.06250
C         -4.43920       -3.28780        0.20260
C         -5.59230       -3.55530        0.43930
H         -0.42490        1.61200        0.77090
H         -0.69680       -0.61870        1.08600
H         -0.23670       -2.95010       -1.45080
H          0.04200       -2.68250        0.27330
H         -6.60750       -3.78990        0.64460
