19
gdb 3071	8.95943	1.08017	1.02678	0.8347	69.17	-0.2477	0.0925	0.3402	1192.5602	0.17062	-310.900102	-310.891764	-310.890819	-310.93337	29.383
C          0.24640        1.44550        0.04720
C         -0.02310       -0.04470       -0.07800
O          0.70990       -0.54540       -1.17520
C          0.52360       -1.93010       -1.38390
C          1.28990       -2.35510       -2.60570
C          2.75630       -2.68160       -2.49970
C          1.75420       -3.78430       -2.73250
H          1.31250        1.62990        0.20710
H         -0.05730        1.96740       -0.86480
H         -0.31000        1.86560        0.89050
H          0.26950       -0.56900        0.84860
H         -1.10180       -0.23190       -0.22120
H          0.87020       -2.50250       -0.50460
H         -0.55120       -2.15300       -1.50590
H          0.96810       -1.86460       -3.51980
H          3.40680       -2.39380       -3.31780
H          3.21770       -2.61210       -1.52020
H          1.54480       -4.46200       -1.91100
H          1.71320       -4.25120       -3.71010
