14
gdb 2228	4.96069	2.98196	2.33134	1.8088	56.61	-0.2423	0.018	0.2603	604.8805	0.114432	-324.57756	-324.571657	-324.570713	-324.606914	22.673
C         -0.01760        1.51990       -0.04350
C          0.05110        0.02580        0.04840
C         -0.82580       -0.82440        0.92330
C          0.67970       -0.85140        1.12290
N          1.39100       -1.89890        0.42410
C          1.17890       -1.68410       -0.81160
O          0.44550       -0.60150       -1.17750
H          0.93680        1.93540       -0.38100
H         -0.79780        1.83630       -0.74370
H         -0.25230        1.94420        0.93650
H         -1.40470       -0.29580        1.67300
H         -1.30170       -1.70470        0.50410
H          1.11800       -0.49150        2.04620
H          1.53920       -2.28840       -1.63510
