15
gdb 15216	2.66221	1.65911	1.30664	4.2863	67.03	-0.2636	-0.0412	0.2224	969.6367	0.117621	-362.676022	-362.667874	-362.66693	-362.708877	28.714
C         -0.09230        1.57150        0.08100
C          0.03660        0.06800       -0.02930
C          0.67770       -0.62830       -1.21880
C          1.26850        0.13530       -2.35220
O          1.12570       -0.19510       -3.50280
C          1.35860       -0.64040        0.16120
C          2.55870        0.12040        0.38080
N          3.51950        0.73540        0.57360
H          0.81800        2.09310       -0.22140
H         -0.91750        1.93300       -0.53990
H         -0.30130        1.85250        1.11770
H         -0.80780       -0.48020        0.37850
H          0.23880       -1.56990       -1.53000
H          1.85730        1.03480       -2.07860
H          1.35110       -1.59610        0.67410
