16
gdb 11306	5.00921	1.34315	1.20735	3.8842	61.52	-0.243	-0.0337	0.2092	1007.0763	0.129072	-420.882246	-420.874247	-420.873303	-420.915621	27.96
C          0.51600        1.49770        0.14380
C         -0.14360        0.12520        0.05820
C          0.25040       -0.68190       -1.18240
O          1.43660       -1.35640       -0.76420
C          1.35040       -1.54260        0.63450
O          0.30080       -0.73460        1.12020
C          1.00170       -3.00290        0.93790
O          1.68510       -3.73180        1.60330
H          1.59350        1.42220       -0.03170
H          0.09090        2.17430       -0.60480
H          0.35450        1.93300        1.13320
H         -1.22950        0.21300        0.15940
H         -0.53330       -1.39690       -1.46540
H          0.50210       -0.06490       -2.04840
H          2.31730       -1.29050        1.09010
H          0.04740       -3.33400        0.46990
