16
gdb 15303	4.26228	1.09203	0.93998	2.5443	72.69	-0.2451	-0.0232	0.2219	1198.6251	0.127914	-346.566012	-346.557561	-346.556616	-346.599811	30.183
O         -0.46370        0.16200       -0.07650
C         -0.01210        1.27520       -0.00150
C          1.39840        1.66640       -0.39130
C          1.41280        2.85260       -1.33420
C          1.22370        4.25500       -0.82500
C          2.58640        3.82970       -1.35070
C          3.68820        3.66840       -0.44890
C          4.61600        3.52900        0.30470
H         -0.63200        2.12190        0.37500
H          1.93970        1.93160        0.52720
H          1.89490        0.79510       -0.82840
H          0.99580        2.64750       -2.31620
H          0.65220        4.95750       -1.42060
H          1.14440        4.40090        0.24660
H          2.85620        4.21030       -2.33120
H          5.43770        3.41170        0.96680
