14
gdb 435	4.53978	4.15272	2.54101	2.3269	49.4	-0.2442	0.0626	0.3069	539.14	0.118783	-307.544728	-307.538101	-307.537157	-307.575262	23.068
C         -0.21620        1.51650        0.03090
C          0.08020        0.03020        0.02870
O          1.21590       -0.31460       -0.80720
C          1.95810       -0.83350        0.31250
C          0.77940       -0.56660        1.27550
O          0.98020        0.37410        2.30320
H          0.64290        2.08740        0.38870
H         -0.45960        1.84070       -0.98550
H         -1.07050        1.73620        0.67900
H         -0.80650       -0.53590       -0.28650
H          2.24670       -1.88230        0.16770
H          2.85070       -0.23470        0.53650
H          0.29950       -1.47660        1.65650
H          1.41920       -0.06540        3.03760
