18
gdb 10713	2.54361	2.08136	1.38853	2.3408	68.76	-0.2359	-0.0129	0.223	952.9332	0.150762	-384.938132	-384.929123	-384.928179	-384.971807	32.355
C         -1.13630        0.06520        0.18960
O          0.26920        0.04170        0.00420
C          0.70210       -0.69620       -1.09920
C          1.86750       -1.63530       -0.83770
C          0.50800       -2.19980       -1.11340
C          0.74900        0.01720       -2.42540
C          0.55520        1.52060       -2.40820
O          0.98180       -0.59350       -3.44760
H         -1.66310        0.50140       -0.67040
H         -1.53980       -0.94070        0.36470
H         -1.32590        0.68380        1.06960
H          2.62170       -1.70650       -1.61220
H          2.22510       -1.64680        0.18510
H         -0.03930       -2.62560       -0.28060
H          0.32870       -2.64700       -2.08370
H          1.16330        1.98050       -1.62420
H          0.81320        1.92440       -3.38780
H         -0.48740        1.76980       -2.18210
