16
gdb 10276	2.45191	1.94395	1.09939	8.705	65.36	-0.2225	-0.0307	0.1918	1049.1304	0.129567	-417.093603	-417.084606	-417.083662	-417.127597	30.867
C          0.06020        1.45230       -0.06030
N         -0.09420        0.02280        0.09130
C         -1.21770       -0.65520        0.18710
N         -2.39620       -0.05630        0.15230
H         -2.40820        0.95030        0.04910
C         -3.70800       -0.70100        0.24850
C         -0.93340       -2.23980        0.34480
O          0.28900       -2.44540        0.33740
O         -1.92340       -2.96170        0.44330
H          1.12270        1.69100       -0.11020
H         -0.41390        1.81130       -0.98290
H         -0.37190        1.99490        0.79040
H          0.68600       -0.64820        0.14280
H         -4.24710       -0.30650        1.11530
H         -4.28720       -0.48930       -0.65540
H         -3.53950       -1.77220        0.35550
