18
gdb 17077	5.50605	1.12443	1.01316	3.1392	67.62	-0.2405	0.0809	0.3215	1158.3948	0.153726	-384.889939	-384.881983	-384.881039	-384.923644	28.071
C          0.01700        1.51590        0.39970
C         -0.08750        0.01700        0.24820
C         -1.27160       -0.63990       -0.31690
O         -0.07910       -0.49310       -1.09080
C          1.42280        2.03650        0.11340
C          1.88600        2.07300       -1.36280
O          2.09760        3.50090       -1.30710
C          1.61520        3.56850        0.04770
H         -0.70010        1.99600       -0.27730
H         -0.27520        1.78740        1.42350
H          0.52930       -0.56470        0.93690
H         -1.51840       -1.66050       -0.02780
H         -2.11620       -0.03300       -0.64120
H          2.14600        1.54720        0.77270
H          2.80970        1.53060       -1.59560
H          1.11700        1.79430       -2.09230
H          0.68790        4.15390        0.12690
H          2.35950        3.99600        0.73110
