20
gdb 18293	2.93831	2.01557	1.78949	1.2716	73.97	-0.2421	0.0795	0.3216	875.2297	0.179689	-348.999352	-348.992	-348.991055	-349.030528	29.188
C         -0.21620        1.53690        0.10940
C         -0.01710        0.04010       -0.00380
C          0.66390       -0.61960       -1.19000
C          1.30700        0.20830       -2.30100
C          2.75050        0.58130       -1.95250
O          2.83900        1.13150       -0.64800
C          2.61270        0.15460        0.35790
C          1.32380       -0.62930        0.17890
H          0.66040        2.09120       -0.23020
H         -1.08150        1.86320       -0.47960
H         -0.40490        1.82050        1.15090
H         -0.85280       -0.53330        0.39130
H          0.22360       -1.55620       -1.51700
H          1.30130       -0.35950       -3.23760
H          0.73370        1.12350       -2.48790
H          3.40030       -0.30710       -2.02690
H          3.14080        1.34320       -2.63380
H          3.45710       -0.55630        0.37080
H          2.62390        0.69960        1.30830
H          1.32650       -1.57270        0.71840
