14
gdb 17188	4.24939	1.84787	1.59571	1.2919	56.73	-0.2473	0.0404	0.2877	799.707	0.105576	-419.546465	-419.539829	-419.538885	-419.577462	25.194
O          0.02280        1.39700        0.01290
C          0.01000       -0.01760       -0.03530
C         -1.38730       -0.54360        0.03950
O         -2.32490       -0.13920       -1.01160
C         -3.15460       -0.96120       -0.14320
C         -2.01460       -1.96910        0.20910
O         -2.18850       -1.84340        1.64660
C         -2.46680       -0.49430        1.17420
H         -0.58350        1.70500       -0.67080
H          0.49450       -0.40250       -0.94650
H          0.57770       -0.37970        0.82790
H         -4.20160       -1.11500       -0.40020
H         -1.74350       -2.93480       -0.21600
H         -2.72290        0.28360        1.89160
