17
gdb 19588	4.25139	1.99168	1.84044	1.4666	66.61	-0.2334	0.079	0.3124	789.8373	0.144183	-363.791373	-363.785134	-363.78419	-363.821296	25.847
C         -0.06800        1.55100        0.00680
C         -0.05920        0.02990       -0.00310
C          1.14360       -0.61530       -0.74300
O          1.97360       -0.30810        0.43600
C          0.73020       -0.63020        1.15950
C          0.63560       -2.15020        0.88810
N         -0.40120       -2.54230       -0.09750
C          0.94980       -2.13890       -0.55810
H          0.92500        1.94980        0.22570
H         -0.39280        1.94110       -0.96400
H         -0.76760        1.92770        0.76110
H         -1.04240       -0.38490       -0.22000
H          1.55490       -0.24170       -1.68070
H          0.71400       -0.27190        2.18870
H          1.03230       -2.87390        1.58940
H         -0.45530       -3.55990       -0.11720
H          1.60410       -2.85340       -1.04220
