17
gdb 1915	6.02812	2.05723	1.8213	1.8176	64.3	-0.2433	0.0925	0.3357	762.781	0.147372	-309.693538	-309.686393	-309.685449	-309.724128	27.121
C         -0.02810        1.58450        0.08820
C          0.02510        0.06500        0.02370
C          1.04610       -0.60990       -0.96860
C          1.69380       -1.31390        0.23770
C          2.42330       -2.61660        0.27690
O          2.13040       -0.26470        1.12040
C          0.75250       -0.66540        1.16810
H          0.96790        1.98810        0.29140
H         -0.38350        2.00800       -0.85730
H         -0.70370        1.92520        0.88070
H         -0.97480       -0.35620       -0.12360
H          0.56450       -1.29440       -1.67160
H          1.71200        0.06460       -1.51390
H          3.38190       -2.54180       -0.24940
H          2.62580       -2.91070        1.31030
H          1.83720       -3.40550       -0.20590
H          0.36840       -0.98450        2.13180
