20
gdb 14699	12.92833	0.51365	0.50168	1.367	81.67	-0.2414	0.0589	0.3003	2208.3182	0.174912	-348.98266	-348.972201	-348.971257	-349.020604	35.297
C          0.01490        1.56550        0.01050
C          0.01360        0.03570        0.00240
C         -1.41310       -0.55080        0.01200
C         -1.43550       -2.00950        0.00440
C         -1.41500       -3.21410       -0.00240
C         -1.43140       -4.67140       -0.01000
C         -2.85330       -5.24310        0.00160
O         -2.73270       -6.65570       -0.00720
H          1.03540        1.96020        0.00350
H         -0.50370        1.96830       -0.86680
H         -0.48800        1.95900        0.90110
H          0.54310       -0.33790       -0.88110
H          0.55860       -0.34710        0.87240
H         -1.94990       -0.17740        0.89500
H         -1.96550       -0.16800       -0.85730
H         -0.91230       -5.05900       -0.89550
H         -0.89410       -5.06850        0.86020
H         -3.38320       -4.88440        0.89670
H         -3.40160       -4.87480       -0.87830
H         -3.61650       -7.03400       -0.00010
