16
gdb 12407	3.09353	2.09665	1.36293	2.2012	60.9	-0.2627	-0.0324	0.2303	879.9704	0.131526	-420.898636	-420.891519	-420.890575	-420.929932	27.152
O          0.05240        1.37380        0.14840
C          0.03110       -0.01640        0.02140
C         -1.42290       -0.55260       -0.02270
O         -1.44270       -1.95320       -0.20920
C         -0.89720       -2.33590       -1.45490
C          0.59440       -1.93910       -1.56360
C          0.72780       -0.46710       -1.25490
O          1.26610        0.34770       -1.97460
H          0.55990        1.69040       -0.61700
H          0.53570       -0.50050        0.87400
H         -1.92630       -0.34330        0.92360
H         -1.96510       -0.03050       -0.82720
H         -1.01080       -3.42010       -1.53000
H         -1.46130       -1.87390       -2.28110
H          1.15890       -2.51360       -0.81980
H          0.99840       -2.15030       -2.55690
