19
gdb 17170	3.84777	1.88475	1.61306	1.594	75.58	-0.2257	0.094	0.3197	885.1572	0.166054	-327.835656	-327.828458	-327.827514	-327.866988	28.301
C         -0.04130        1.51360        0.05640
C         -0.07390       -0.01800       -0.01420
C         -1.47220       -0.56580       -0.08940
C         -2.57600       -0.27610       -1.12080
C         -3.22900       -1.13820       -0.04230
C         -1.97230       -2.02690        0.18090
C         -2.04650       -1.71830        1.67070
N         -2.49010       -0.37860        1.09120
H          0.98540        1.87970        0.14890
H         -0.47640        1.96120       -0.84290
H         -0.61480        1.86940        0.91690
H          0.48510       -0.37010       -0.89130
H          0.43190       -0.44240        0.86230
H         -2.92230        0.75920       -1.18500
H         -2.45530       -0.72590       -2.11010
H         -4.27380       -1.42570        0.08840
H         -1.68980       -2.94280       -0.35090
H         -2.82700       -2.21270        2.25890
H         -1.11620       -1.66720        2.24540
