19
gdb 1625	3.51112	1.96377	1.36639	2.7421	68.05	-0.2444	-0.0176	0.2268	924.3641	0.168626	-310.940657	-310.931602	-310.930658	-310.974334	31.889
C          0.05040        1.54840       -0.01960
C          0.01300        0.01520        0.04200
C          0.76980       -0.48640        1.28190
C         -1.43320       -0.54390        0.01570
C         -2.25560       -0.07000       -1.19850
C         -1.39680       -2.05990       -0.02560
O         -1.92570       -2.79880        0.76380
H          1.08280        1.90570        0.05150
H         -0.36870        1.93920       -0.95030
H         -0.50940        1.98840        0.81420
H          0.52790       -0.36990       -0.85130
H          0.78660       -1.57910        1.34180
H          1.80670       -0.13620        1.27290
H          0.30010       -0.11540        2.20010
H         -1.94980       -0.26130        0.94080
H         -3.24650       -0.53420       -1.20200
H         -2.39670        1.01280       -1.18060
H         -1.75820       -0.32980       -2.14020
H         -0.83220       -2.46830       -0.90050
