16
gdb 312	7.09839	2.5176	2.36131	1.5588	56.92	-0.2399	0.0942	0.3341	627.2141	0.14242	-271.628346	-271.621668	-271.620724	-271.658548	24.277
C          0.21830        1.53780        0.07730
C         -0.00790        0.04630       -0.05660
C          0.59190       -0.69940       -1.26850
C          1.24840       -1.60670       -0.20530
C          2.75110       -1.79450       -0.22250
O          0.80860       -0.72610        0.85820
H          1.26990        1.78720       -0.09490
H         -0.39530        2.08480       -0.64720
H         -0.05490        1.87770        1.08140
H         -1.07220       -0.18770        0.09640
H         -0.10920       -1.17010       -1.95940
H          1.31200       -0.10120       -1.83410
H          0.74850       -2.58310       -0.11910
H          3.26080       -0.83220       -0.33050
H          3.08940       -2.25910        0.70930
H          3.04650       -2.44350       -1.05460
