22
gdb 6479	3.71692	1.31195	1.19893	1.0913	78.68	-0.241	0.0835	0.3245	1147.6959	0.198497	-350.196777	-350.187468	-350.186524	-350.230177	35.151
C          0.49140        1.78340       -0.00750
O          0.54440        0.39340       -0.23790
C          0.63640       -0.41650        0.92120
C          1.95340       -0.20860        1.66830
C         -0.61740       -0.43630        1.85390
C         -0.57570       -1.99120        1.81890
C         -1.88790       -2.74980        1.69050
C          0.35430       -1.89920        0.57630
H          1.44000        2.18850        0.37280
H          0.27740        2.25640       -0.96950
H         -0.30710        2.05380        0.69980
H          2.02080        0.79170        2.10760
H          2.05030       -0.93070        2.48490
H          2.79880       -0.34630        0.98640
H         -0.54370        0.05600        2.82740
H         -1.49350       -0.05240        1.32190
H         -0.01660       -2.36960        2.68150
H         -2.46620       -2.38790        0.83280
H         -1.71580       -3.82260        1.54730
H         -2.50810       -2.62900        2.58600
H         -0.21190       -1.95730       -0.35740
H          1.21180       -2.57490        0.51980
