8
gdb 3924	9.0057	2.09229	1.69783	1.4031	42.8	-0.2995	-0.1159	0.1836	631.3044	0.042335	-391.370332	-391.364933	-391.363989	-391.399878	17.853
O         -0.08080       -0.01330       -0.00050
C          0.00490        1.18480        0.00690
C          1.29770        1.91830       -0.00140
N          2.49230        1.38690       -0.01730
O          3.33010        2.42410       -0.01840
N          2.57710        3.62510       -0.00330
N          1.36960        3.30050        0.00690
H         -0.87280        1.85930        0.02040
