18
gdb 14662	11.84941	0.53927	0.52246	0.0001	97.53	-0.2243	0.0004	0.2247	2162.8841	0.152067	-310.639513	-310.629692	-310.628747	-310.675309	33.581
C         -0.05260        1.57410        0.06950
C          0.00200        0.03560        0.00140
C          0.67900       -0.46070       -1.18800
C          1.24510       -0.85650       -2.18290
C          1.88070       -1.30230       -3.30000
C          2.44680       -1.69810       -4.29490
C          3.12370       -2.19450       -5.48420
C          3.17820       -3.73290       -5.55240
H          0.95490        1.99800        0.07630
H         -0.58520        1.98190       -0.79350
H         -0.56960        1.89420        0.97890
H          0.50770       -0.35330        0.89510
H         -1.01820       -0.36940        0.03330
H          2.61810       -1.80550       -6.37800
H          4.14390       -1.78960       -5.51620
H          2.17060       -4.15680       -5.55920
H          3.69510       -4.05320       -6.46180
H          3.71080       -4.14080       -4.68930
