20
gdb 9342	7.49614	0.70371	0.65627	3.0251	72.48	-0.266	-0.0231	0.2429	1717.496	0.174361	-386.167046	-386.157054	-386.15611	-386.203497	34.39
C         -0.05000        1.55160        0.03570
C          0.01790        0.02310       -0.01770
C          0.73110       -0.49680       -1.27000
C          0.79960       -2.02350       -1.32460
C          1.49920       -2.56960       -2.55150
O          1.96740       -1.86320       -3.42030
C          1.61800       -4.08450       -2.69630
O          2.28390       -4.43140       -3.87270
H          0.95310        1.99180        0.03290
H         -0.58840        1.95350       -0.82960
H         -0.56360        1.89700        0.93820
H          0.53150       -0.35310        0.87730
H         -0.99860       -0.39120        0.02150
H          0.22410       -0.12830       -2.16930
H          1.74800       -0.09030       -1.31710
H          1.31290       -2.42630       -0.43940
H         -0.20730       -2.46420       -1.28960
H          2.14150       -4.47610       -1.80790
H          0.60270       -4.51460       -2.66760
H          2.49870       -3.58320       -4.29440
