15
gdb 10450	3.30533	1.57743	1.25053	2.1026	67.48	-0.259	-0.0393	0.2197	973.5157	0.116832	-362.610607	-362.602431	-362.601487	-362.643563	29.363
O         -0.32060        0.45760        0.97050
C         -0.07840        1.21100        0.05740
C          1.22070        1.94160       -0.07470
C          1.54960        2.52000       -1.44440
C          1.55900        1.50530       -2.49400
C          1.54300        0.65150       -3.33940
C          1.68090        2.62820        1.17880
N          2.33920        1.41370        0.71660
H         -0.82070        1.40650       -0.74410
H          0.82020        3.30220       -1.69460
H          2.52760        3.00900       -1.38610
H          1.54140       -0.09890       -4.09080
H          2.26300        3.54130        1.08340
H          1.02640        2.57450        2.04410
H          1.98400        0.62080        1.25260
