22
gdb 9917	4.61402	0.91296	0.8608	1.0231	79.42	-0.2495	0.0852	0.3348	1444.1361	0.198669	-350.186278	-350.176595	-350.175651	-350.221046	35.044
C          0.11550        1.31010       -0.20960
O          0.02400       -0.05850        0.09770
C         -1.28280       -0.57090       -0.05770
C         -1.26180       -2.05160        0.31110
C         -2.59280       -2.75880        0.10610
C         -3.73450       -2.28930        0.99050
C         -2.93250       -3.22010       -1.29360
C         -2.54600       -4.22880       -0.23720
H          1.15550        1.61210       -0.06140
H         -0.16820        1.51630       -1.25450
H         -0.52780        1.92190        0.44370
H         -1.98600       -0.01280        0.58310
H         -1.62600       -0.44220       -1.09900
H         -0.48810       -2.53480       -0.29630
H         -0.94220       -2.14690        1.35690
H         -3.99700       -1.24250        0.80110
H         -4.63510       -2.88730        0.81900
H         -3.47340       -2.37890        2.05190
H         -3.96970       -3.18310       -1.61020
H         -2.22150       -3.01900       -2.08840
H         -1.57590       -4.70780       -0.31970
H         -3.32370       -4.87100        0.16310
