22
gdb 10763	3.27635	1.38349	1.27389	1.6293	77.63	-0.2607	0.0782	0.3388	1106.356	0.198227	-350.191924	-350.182334	-350.18139	-350.225751	35.842
C         -0.00980        1.45080        0.24610
C          0.12790       -0.04490       -0.05730
C          0.73410       -0.42940       -1.43530
C         -0.12380        0.11480       -2.59320
C          2.17890        0.08020       -1.55950
C          0.67730       -1.95460       -1.50490
C          1.68510       -2.82310       -2.12650
O          1.59490       -2.70210       -0.70320
H          0.95740        1.96230        0.25370
H         -0.65240        1.96120       -0.47820
H         -0.45810        1.59290        1.23450
H          0.74090       -0.51710        0.71960
H         -0.86450       -0.50960        0.01750
H         -0.10870        1.20810       -2.62140
H          0.25070       -0.24480       -3.55760
H         -1.16900       -0.20180       -2.50030
H          2.82670       -0.41070       -0.82770
H          2.58320       -0.10880       -2.55900
H          2.22770        1.15950       -1.39430
H         -0.34250       -2.34740       -1.46470
H          1.38430       -3.78870       -2.53170
H          2.58140       -2.39740       -2.57090
