17
gdb 11402	3.79474	1.50804	1.16988	0.6891	65.2	-0.2463	0.0232	0.2695	1029.9721	0.142475	-401.022801	-401.01468	-401.013736	-401.055864	29.149
C          0.11940        1.34320        0.28300
C         -0.03770       -0.11850        0.03950
N          0.14630       -0.72790       -1.05850
C         -0.13940       -2.14740       -0.80820
C         -0.46800       -2.23350        0.70360
C          0.54920       -3.00560        1.53260
O          0.28450       -2.92140        2.91640
O         -0.43010       -0.84360        1.13140
H          0.87240        1.52120        1.05720
H          0.41920        1.83820       -0.63980
H         -0.82260        1.77020        0.64120
H         -0.97020       -2.47860       -1.43980
H          0.73220       -2.75830       -1.07360
H         -1.47510       -2.60470        0.91420
H          0.50690       -4.06650        1.26190
H          1.55960       -2.63850        1.28480
H          0.22030       -1.98200        3.12410
