22
gdb 18258	3.96536	1.45769	1.21667	0.1844	81.03	-0.2591	0.0856	0.3448	1089.9951	0.202471	-313.0812	-313.073268	-313.072324	-313.113287	31.358
C          0.05450        1.55880        0.00120
C          0.01480        0.02730        0.02880
C         -1.40180       -0.56010       -0.00670
C         -2.20340       -0.24400       -1.29620
C         -3.24320       -1.38040       -1.42930
C         -2.58810       -2.58640       -0.76980
C         -1.15770       -2.89110       -1.14260
C         -1.45840       -2.08250        0.09900
H          1.08230        1.92990        0.06440
H         -0.38430        1.95610       -0.91980
H         -0.50390        1.98400        0.84320
H          0.58810       -0.37290       -0.81790
H          0.52340       -0.32980        0.93380
H         -1.95790       -0.15560        0.85270
H         -2.67130        0.74330       -1.26760
H         -1.52820       -0.24180       -2.15970
H         -4.15770       -1.12460       -0.88040
H         -3.53400       -1.55720       -2.47100
H         -3.21990       -3.40760       -0.44860
H         -0.81510       -3.90950       -0.99480
H         -0.71700       -2.40520       -2.00750
H         -1.24650       -2.53410        1.06270
