17
gdb 21071	3.34162	2.01772	1.28322	2.0682	72.02	-0.1955	0.032	0.2274	945.0853	0.143088	-360.064595	-360.055961	-360.055016	-360.097834	30.426
C          0.02780        1.40930       -0.03230
N          0.01750       -0.03380        0.04210
N         -0.00370       -0.75810       -1.09420
C          0.00280       -2.02600       -0.68710
C          0.01440       -2.12350        0.72030
N         -0.02810       -3.27470        1.54530
C          0.01400       -0.80980        1.16520
C          0.00090       -0.27160        2.55550
H          0.91880        1.82480        0.45060
H          0.03260        1.67550       -1.08870
H         -0.86050        1.83930        0.44320
H         -0.00990       -2.82590       -1.41440
H         -0.19910       -4.10810        0.99540
H          0.84150       -3.41770        2.04810
H          0.97060        0.14100        2.86300
H         -0.74400        0.52230        2.68130
H         -0.25210       -1.08140        3.24510
