16
gdb 5724	4.76741	2.11002	1.50591	2.7455	71.1	-0.1768	0.0542	0.2311	816.4347	0.134968	-342.81308	-342.806828	-342.805883	-342.843352	24.694
C          0.01130        1.42970       -0.15600
C          1.48010        1.86070        0.12520
N          2.15870        0.59610       -0.07830
C          3.45670        0.13990       -0.12150
C          3.39550       -1.23610       -0.11920
C          2.02020       -1.63290       -0.06680
C          1.29580       -0.46700       -0.02940
N         -0.04770       -0.03560        0.05720
H         -0.71170        1.94890        0.47580
H         -0.23490        1.64380       -1.20160
H          1.82160        2.63210       -0.57040
H          1.62700        2.22890        1.14990
H          4.29250        0.81630       -0.19290
H          4.24530       -1.89940       -0.18100
H          1.63050       -2.63800       -0.06740
H         -0.45970       -0.26590        0.95540
