18
gdb 7698	3.42212	2.08628	1.86631	1.6929	66.47	-0.2421	0.0742	0.3163	804.4157	0.1542	-384.921038	-384.913878	-384.912934	-384.951741	29.007
C         -0.05990        1.51070        0.00610
C          0.02300       -0.01050       -0.00270
O         -1.27090       -0.60210       -0.03920
C          1.00520       -0.59190       -1.08470
C          1.96770       -1.30340       -0.11570
C          1.03520       -2.04860        0.86460
C          0.76530       -0.57800        1.23560
O          2.15610       -0.27230        0.91310
H          0.93100        1.94180        0.16770
H         -0.44080        1.88840       -0.95100
H         -0.73130        1.85170        0.80090
H         -1.77500       -0.17510       -0.73930
H          0.48930       -1.27330       -1.76620
H          1.51610        0.18230       -1.66230
H          2.89670       -1.72410       -0.50030
H          0.21550       -2.65240        0.47410
H          1.59500       -2.56550        1.64450
H          0.44140       -0.24280        2.22090
