13
gdb 8651	2.60213	1.8153	1.40381	2.89	60.19	-0.2869	-0.0119	0.2749	904.7175	0.092783	-398.556112	-398.54769	-398.546746	-398.588783	30.349
O          0.05120        1.33060       -0.30340
C          0.04880       -0.05080       -0.01050
C         -1.41860       -0.58040       -0.01830
O         -2.04150       -0.18830       -1.22180
C         -1.43680       -2.03570        0.10690
C         -1.39020       -3.22860        0.22510
C         -2.11790        0.04450        1.14320
N         -2.60390        0.60480        2.02950
H         -0.22940        1.81130        0.48510
H          0.57820       -0.55220       -0.82380
H          0.53470       -0.28810        0.94230
H         -1.70420        0.70350       -1.40150
H         -1.37100       -4.28640        0.32590
