18
gdb 8444	2.74151	2.12972	1.7971	1.6744	67.51	-0.2461	0.0717	0.3178	851.8638	0.151133	-384.912235	-384.903873	-384.902929	-384.944162	32.087
C         -0.09750        1.52690        0.04960
C          0.13520        0.05370        0.01790
O         -0.73580       -0.81990        0.74930
C          0.68070       -0.91160        0.98610
C          1.25490       -1.80720       -0.11390
C          0.67080       -0.78740       -1.17190
C         -0.35660       -1.31280       -2.16030
O          1.68510       -0.02510       -1.80460
H          0.76850        2.05040       -0.36350
H         -0.97490        1.79630       -0.54910
H         -0.26840        1.86530        1.07510
H          1.01730       -0.77170        2.00730
H          2.34670       -1.80190       -0.14940
H          0.87540       -2.83240       -0.13130
H         -1.18000       -1.79470       -1.62820
H         -0.75440       -0.49570       -2.77070
H          0.09340       -2.05360       -2.83330
H          2.07170       -0.56360       -2.50310
