11
gdb 23732	5.68505	1.55054	1.21827	3.1891	56.7	-0.24	-0.0717	0.1683	861.3201	0.072064	-442.549352	-442.543333	-442.542389	-442.579677	22.615
F         -0.00530       -0.00660        0.00320
C         -0.02420        1.32820        0.01050
C         -1.19000        2.00310        0.02950
O         -1.22840        3.34570        0.03700
C         -0.06610        4.14480        0.02540
O         -0.20960        5.33580        0.03530
C          1.18130        3.40060        0.00590
C          1.20520        2.04660       -0.00160
H         -2.16750        1.53800        0.04000
H          2.08440        3.99660       -0.00220
H          2.13700        1.49090       -0.01650
