17
gdb 4564	5.48827	1.45146	1.15745	1.4472	80.62	-0.1929	0.0092	0.2021	1030.645	0.144054	-326.802408	-326.79471	-326.793766	-326.835041	29.24
C          0.01330        1.53360        0.01030
C         -0.01140        0.02460        0.00230
C         -0.01720       -0.69650       -1.19460
C         -0.00940       -2.08600       -1.21030
C          0.00150       -2.81300       -0.01320
N         -0.05780       -4.21120       -0.02050
C          0.00430       -2.09900        1.19170
C         -0.00360       -0.70950        1.19120
H          1.03930        1.92390        0.00240
H         -0.49430        1.94670       -0.86700
H         -0.47720        1.93690        0.90160
H         -0.02740       -0.16030       -2.13970
H         -0.02050       -2.61720       -2.15800
H          0.31260       -4.63950       -0.85690
H          0.32210       -4.64860        0.80690
H          0.00400       -2.64050        2.13360
H         -0.00290       -0.18360        2.14210
