11
gdb 21834	6.02761	1.49905	1.20049	3.5785	54.56	-0.2745	-0.0535	0.221	887.7852	0.073164	-430.699228	-430.692917	-430.691973	-430.730261	22.249
O         -0.27970        0.03280        0.00230
C         -0.08000        1.22360        0.00830
N          1.16190        1.81380        0.00110
C          2.36490        1.12960       -0.01380
N          3.50350        1.77370       -0.01860
O          4.46490        0.79820       -0.03380
N          3.91270       -0.44740       -0.03830
C          2.62110       -0.27410       -0.02620
H         -0.88340        1.98160        0.02080
H          1.22220        2.82190        0.00760
H          1.92170       -1.09130       -0.02630
