14
gdb 20647	7.32871	1.24217	1.06923	5.9522	67.61	-0.2445	-0.0442	0.2004	1049.4036	0.107999	-378.759471	-378.752027	-378.751083	-378.791851	26.001
C         -0.02960        1.52170        0.05050
C         -0.00040        0.03260       -0.05680
C         -0.04120       -0.82250       -1.13650
C          0.02210       -2.12800       -0.58540
C          0.00980       -3.39280       -1.33710
O          0.06460       -4.50060       -0.86150
N          0.09770       -2.08810        0.75050
N          0.08200       -0.78360        1.03460
H          0.88110        1.91380        0.51730
H         -0.11190        1.96540       -0.94340
H         -0.88260        1.86990        0.64380
H         -0.10750       -0.54770       -2.17740
H         -0.05730       -3.24010       -2.43900
H          0.13010       -0.50090        2.00110
