16
gdb 20296	5.32052	1.52089	1.4473	1.8021	64.26	-0.2383	0.084	0.3222	886.6961	0.130693	-383.633412	-383.626837	-383.625892	-383.664633	25.175
C          1.37390        0.46760       -0.13010
O          0.35960       -0.04520       -0.99540
C         -0.03690        0.45750        0.28410
C         -0.56000       -0.47750        1.34040
C         -1.90900       -1.25360        1.23410
C         -1.28690       -2.24090        0.21870
C         -0.29470       -2.01110        1.38390
O         -1.43040       -2.12770        2.33040
H          2.05640       -0.27600        0.27870
H          1.83840        1.39770       -0.45370
H         -0.57430        1.40660        0.22760
H         -0.44900       -0.01600        2.32670
H         -2.92870       -0.87350        1.30520
H         -1.75170       -3.22750        0.21480
H         -1.01050       -1.87760       -0.76930
H          0.62200       -2.54560        1.63540
