17
gdb 1620	3.03357	2.26902	1.76361	1.2181	65.63	-0.2598	0.0452	0.305	813.0934	0.14558	-309.692389	-309.683807	-309.682863	-309.724651	31.506
C          0.05480        1.54040        0.15820
C         -0.02640        0.02080        0.01590
O         -1.36560       -0.44240        0.08440
C          0.67690       -0.50360       -1.27040
C          0.79290       -2.03980       -1.25130
C         -0.05070       -0.04640       -2.45450
C         -0.70290        0.31710       -3.39850
H          1.09500        1.87750        0.22260
H         -0.40890        2.03570       -0.70160
H         -0.46940        1.85580        1.06390
H          0.47730       -0.44860        0.86930
H         -1.81660       -0.11490       -0.70450
H          1.68680       -0.07250       -1.29480
H          1.23850       -2.41330       -2.17630
H          1.41820       -2.35820       -0.41130
H         -0.19710       -2.48530       -1.13180
H         -1.24710        0.64030       -4.25140
