11
gdb 2642	159.93458	0.78344	0.78344	1.5732	92.34	-0.2323	-0.0452	0.1871	1373.6247	0.075867	-268.9179	-268.91017	-268.909226	-268.948997	26.267
C         -0.01810        1.47890        0.01020
C          0.00190        0.02910        0.00200
C          0.01850       -1.18350       -0.00470
C          0.03690       -2.53470       -0.01210
C          0.05340       -3.75310       -0.01870
C          0.07140       -5.10610       -0.02610
C          0.08740       -6.31580       -0.03260
H          0.99860        1.88780        0.00280
H         -0.54310        1.87140       -0.86800
H         -0.52620        1.86160        0.90260
H          0.10150       -7.37740       -0.03830
