17
gdb 16160	4.4879	1.6632	1.42933	1.3111	67.56	-0.2428	0.0171	0.2599	911.9846	0.142992	-363.864647	-363.857445	-363.856501	-363.896078	27.52
C          0.00450        1.52780        0.21710
C         -0.00360        0.03220       -0.11930
C         -1.39140       -0.55890       -0.09110
C         -2.06240       -0.98830        1.20290
C         -1.77140       -2.01340        0.14400
O         -2.82460       -2.28710       -0.77160
C         -3.04900       -1.10390       -1.40210
N         -2.31610       -0.10510       -1.11820
H          1.01810        1.93610        0.16420
H         -0.62670        2.08020       -0.48420
H         -0.38030        1.70590        1.22660
H          0.42770       -0.12720       -1.11500
H          0.62850       -0.51700        0.58910
H         -1.43100       -1.03300        2.08430
H         -3.09110       -0.69410        1.38290
H         -1.11210       -2.85860        0.29420
H         -3.85940       -1.11960       -2.12050
