13
gdb 2404	6.74336	2.11183	1.9926	2.929	54.56	-0.2583	-0.0126	0.2457	666.8934	0.100798	-344.392695	-344.38661	-344.385666	-344.422425	22.702
C         -0.07190        1.55830        0.00770
C         -0.03160        0.03900        0.01180
C          1.20250       -0.65370       -0.63980
O          2.02350       -0.22270        0.52450
C          0.75200       -0.66080        1.16230
C          0.90040       -1.89860        0.23720
O          0.91750       -3.08360        0.23680
H          0.90770        1.97160        0.25420
H         -0.37200        1.93150       -0.97650
H         -0.80050        1.92480        0.73760
H         -1.00050       -0.41060       -0.23220
H          1.63330       -0.53830       -1.63230
H          0.66470       -0.55350        2.24160
