18
gdb 14893	3.0152	1.82709	1.62795	0.5947	77.53	-0.2382	0.0288	0.267	900.7371	0.154902	-310.654717	-310.647198	-310.646254	-310.686262	29.399
C         -0.08970       -1.24370       -0.20780
C         -0.04600       -0.04640       -0.10370
C         -0.00110        1.40950        0.02470
C         -0.72220        1.88420        1.30900
C         -0.01940        1.36840        2.57090
C          1.47410        1.54620        2.49430
C          2.12540        1.80770        1.36180
C          1.45500        1.94010        0.01900
H         -0.12700       -2.30010       -0.30640
H         -0.52250        1.83500       -0.84190
H         -0.71620        2.98080        1.30870
H         -1.76800        1.56370        1.29190
H         -0.41340        1.88820        3.45290
H         -0.25420        0.30530        2.72150
H          2.03080        1.44290        3.42280
H          3.20510        1.93650        1.37740
H          2.03520        1.41030       -0.74480
H          1.44600        2.99550       -0.28950
