20
gdb 8002	3.11824	1.60416	1.17124	2.0357	77.38	-0.2356	0.0198	0.2554	1078.8479	0.176581	-349.027551	-349.018819	-349.017875	-349.06059	32.93
C          0.05900        1.58020       -0.03800
C          0.05970        0.04780        0.02760
C          0.75330       -0.63060       -1.17950
C          1.47760       -1.88150       -0.61980
O          2.73720       -2.14810       -1.22820
C          1.54580       -1.59040        0.85860
C          0.79500       -0.54770        1.22180
C          0.59820       -0.02640        2.61170
H          1.08240        1.97250       -0.05090
H         -0.44250        1.92740       -0.94720
H         -0.46220        2.02430        0.81620
H         -0.99010       -0.28130        0.07800
H          0.06660       -0.86350       -1.99720
H          1.51850        0.04290       -1.58560
H          0.89920       -2.79470       -0.81240
H          3.32430       -1.42110       -0.99170
H          2.12560       -2.21240        1.53340
H          1.15750       -0.61490        3.34370
H          0.91910        1.01860        2.69910
H         -0.46210       -0.04930        2.89580
