16
gdb 18495	6.21152	1.16841	1.09741	4.7762	68.07	-0.2376	0.0266	0.2642	1083.8738	0.130962	-379.861482	-379.854076	-379.853132	-379.894362	26.856
N         -0.08080        1.32230        0.09820
C         -0.06570        0.06050        0.08590
O         -1.21340       -0.63130       -0.04410
C         -1.14050       -2.03980        0.05810
C         -1.57680       -2.72150        1.40670
C         -2.58610       -3.53550        0.58990
N         -3.51480       -2.53580        0.02370
C         -2.23310       -2.81100       -0.66860
H          0.86930        1.67780        0.18190
H          0.82530       -0.58040        0.16220
H         -0.14810       -2.39070       -0.24900
H         -0.77390       -3.30110        1.86600
H         -2.02970       -2.04800        2.13620
H         -2.87530       -4.56930        0.72480
H         -4.23290       -3.04100       -0.49530
H         -2.21900       -3.14580       -1.69820
