15
gdb 18331	3.6203	2.17301	1.58815	2.7612	60.56	-0.2267	-0.0286	0.1981	795.7094	0.120184	-399.782295	-399.775634	-399.77469	-399.813503	24.834
O         -0.01190        0.02830       -0.04620
C          0.00220        1.22920       -0.02550
C         -1.20730        2.15530        0.13660
O         -0.81120        3.44260       -0.31370
C          0.60630        3.55300       -0.39400
C          1.32080        4.02430        0.89780
N          1.58710        2.60530        1.24170
C          1.21040        2.15760       -0.12690
H         -2.05260        1.80190       -0.46180
H         -1.51300        2.17000        1.19310
H          0.85220        4.08500       -1.31400
H          2.21860        4.61880        0.68280
H          0.69900        4.55910        1.62270
H          2.52930        2.37420        1.52970
H          2.00590        1.78200       -0.77460
