20
gdb 13421	3.16698	1.18947	1.08627	0.2271	84.96	-0.2227	0.0568	0.2795	1238.4522	0.174815	-311.844639	-311.834626	-311.833682	-311.881319	34.837
C          0.09610        1.52480       -0.07030
C          0.04270        0.07010       -0.02820
C          0.00470       -1.13500        0.00360
C         -0.02060       -2.56890        0.02730
C         -0.48470       -3.32950        1.27210
C         -0.86550       -2.60510        2.54320
C         -1.34590       -3.33510        0.03600
C         -2.67320       -2.61670       -0.05150
H          1.13100        1.88370       -0.10780
H         -0.42280        1.92310       -0.94990
H         -0.37160        1.96730        0.81650
H          0.78540       -3.03620       -0.53230
H          0.06510       -4.25130        1.44620
H         -1.31370       -1.63040        2.33990
H         -1.57850       -3.19340        3.13150
H          0.01860       -2.43220        3.16610
H         -1.31470       -4.26020       -0.53440
H         -2.63960       -1.63590        0.42710
H         -2.95500       -2.45750       -1.09790
H         -3.46860       -3.20220        0.42300
