13
gdb 2527	2.70156	2.49356	1.37207	2.0256	51.39	-0.2609	-0.0564	0.2045	821.5791	0.09834	-381.594558	-381.586556	-381.585612	-381.627876	26.134
O          0.33420        1.27960       -0.05410
C          0.02220       -0.09090        0.14190
C         -1.48330       -0.34230        0.05840
C         -2.09220        0.15530       -1.25420
O         -3.27830        0.22330       -1.44380
C         -1.85790       -1.81210        0.23690
O         -1.05790       -2.67960        0.46830
H          0.04900        1.76990        0.72360
H          0.53010       -0.63510       -0.66050
H          0.41890       -0.48020        1.08720
H         -2.02120        0.19550        0.85440
H         -1.35430        0.42150       -2.03920
H         -2.94290       -2.01810        0.12870
