16
gdb 20945	7.30996	1.0923	0.96972	3.3489	67.88	-0.2178	0.0045	0.2223	1180.6608	0.131474	-379.913838	-379.906165	-379.905221	-379.946624	27.614
C          0.02750        1.53780        0.03100
C         -0.15740        0.03260       -0.13040
N          0.79170       -0.49440       -1.10430
C          0.83990       -1.84560       -1.36500
N          1.22230       -2.28610       -2.54920
O          1.23250       -3.68390       -2.44060
C          0.83960       -4.02230       -1.21020
C          0.56870       -2.92460       -0.46330
H          1.04810        1.77200        0.34650
H         -0.16620        2.06190       -0.91180
H         -0.66850        1.93090        0.77700
H          0.02740       -0.46260        0.82940
H         -1.20080       -0.19010       -0.40770
H          0.86740        0.05740       -1.94910
H          0.80030       -5.08090       -1.00170
H          0.23940       -2.88410        0.56040
