16
gdb 9806	3.34209	1.69179	1.2988	1.1211	60.83	-0.2672	-0.0436	0.2236	944.0571	0.127278	-420.861933	-420.853469	-420.852524	-420.895132	30.399
C         -0.29430        0.97190       -1.29470
C         -0.03710        0.25610        0.00850
C          1.20810       -0.49320        0.22180
O          1.01100        0.79330        0.82710
C         -1.30250       -0.12850        0.78110
O         -2.11630       -0.96600        0.00500
C         -1.00260       -0.77450        2.12240
O         -1.48380       -1.84340        2.41630
H          0.64710        1.20290       -1.79880
H         -0.91100        0.34850       -1.94710
H         -0.82940        1.91090       -1.11530
H          1.23490       -1.33770        0.90990
H          1.95610       -0.52280       -0.56820
H         -1.83440        0.81410        1.01700
H         -2.28650       -1.74380        0.56140
H         -0.34300       -0.21220        2.80660
