11
gdb 5465	3.70704	1.99981	1.30004	3.7276	61.55	-0.2309	-0.0412	0.1896	837.4353	0.074322	-393.625687	-393.619132	-393.618188	-393.656472	23.879
N          0.09530        1.38750        0.17440
C         -0.00160        0.03300        0.06160
C         -1.11470       -0.77770        0.01960
O         -0.65840       -2.08950       -0.03310
C          0.67110       -1.97210       -0.02390
N          1.12990       -0.75970        0.02960
C         -2.48640       -0.50690        0.01510
N         -3.61260       -0.22350        0.00900
H          0.98380        1.77750       -0.09840
H         -0.71100        1.93390       -0.08390
H          1.24160       -2.88740       -0.06270
