14
gdb 2136	3.64067	3.43451	1.91803	3.2882	59.65	-0.2315	-0.0035	0.228	661.0574	0.115146	-320.785074	-320.778523	-320.777578	-320.815432	24.053
C         -0.04890        1.55000        0.00600
C          0.04890        0.02380        0.00220
N          0.82490       -0.48020       -1.14920
C          1.76540       -1.18530       -0.65720
N          1.79010       -1.28790        0.72920
C          0.74220       -0.52870        1.25230
N          0.40080       -0.30690        2.45480
H          0.94850        1.99910        0.02140
H         -0.56890        1.89700       -0.89010
H         -0.59150        1.87910        0.89550
H         -0.96250       -0.39750       -0.05530
H          2.52150       -1.69940       -1.24270
H          2.49340       -1.76040        1.27190
H          1.01300       -0.77710        3.12350
