13
gdb 14007	4.75792	1.43802	1.25586	2.8875	59.07	-0.2742	-0.0164	0.2578	925.7444	0.094714	-398.554415	-398.547385	-398.546441	-398.58616	24.882
N         -0.08080       -1.15940        0.08940
C         -0.04760       -0.00440        0.06930
C         -0.00010        1.43970        0.00940
O          0.61260        2.10930        1.12540
C          1.29220        2.13500       -0.10410
C          2.69840        1.61060       -0.36380
O          2.97710        2.77610       -1.17430
C          1.69820        3.37990       -0.88440
H         -0.90130        1.91270       -0.37560
H          3.32760        1.55960        0.53280
H          2.77900        0.67570       -0.92880
H          1.12670        3.60710       -1.79130
H          1.78650        4.28150       -0.26540
