19
gdb 9671	4.59666	1.07975	0.99669	2.2118	68.	-0.2479	0.0572	0.3051	1207.7031	0.164192	-402.16286	-402.15342	-402.152475	-402.197478	33.857
C          0.07060        1.61620       -0.12840
C         -0.09750        0.13180        0.12820
C         -1.34020       -0.47860       -0.50320
O         -1.28490       -0.52720       -1.92160
N          1.14030       -0.66790        0.08100
C          0.40930       -0.54320        1.35900
C          1.18910        0.11950        2.47220
O          2.27110       -0.70110        2.88000
H          1.02280        1.98490        0.25360
H          0.06260        1.81780       -1.20620
H         -0.74020        2.19250        0.33130
H         -1.44320       -1.52030       -0.18060
H         -2.23500        0.06260       -0.15660
H         -1.34980        0.37150       -2.25840
H          0.96110       -1.56730       -0.35930
H         -0.15060       -1.41850        1.68750
H          1.54140        1.11260        2.16160
H          0.55260        0.25360        3.35340
H          2.77430       -0.88440        2.07730
