8
gdb 170	9.8405	9.63861	4.86926	2.8629	35.74	-0.2677	-0.0138	0.2538	272.9362	0.058014	-245.994065	-245.9905	-245.989556	-246.020256	12.232
O         -0.01540        1.28210        0.00920
C          1.25470        1.70880       -0.00070
C          2.11080        0.65550       -0.01470
C          1.23520       -0.46430       -0.01230
N         -0.02590       -0.10940        0.00160
H          1.39050        2.77900        0.00380
H          3.18730        0.66970       -0.02500
H          1.48170       -1.51660       -0.02040
