20
gdb 19207	2.50868	2.46239	2.40727	1.5102	72.47	-0.2321	0.0703	0.3024	786.8025	0.18174	-349.028629	-349.02199	-349.021046	-349.059507	26.862
C         -0.03600        1.53550        0.00850
C          1.42940        2.05790       -0.00760
C          2.37660        0.84940        0.01140
C          2.16230        0.00620        1.27670
C          0.69300       -0.50550        1.28420
C         -0.00570       -0.00460        0.00610
C          0.80930       -0.47050       -1.20520
O          2.14600        0.04180       -1.14670
H         -0.57580        1.89450        0.89120
H         -0.58580        1.89850       -0.86610
H          1.62690        2.64490       -0.90910
H          1.63640        2.70560        0.85110
H          3.41860        1.17100       -0.06960
H          2.86860       -0.82890        1.26640
H          2.38530        0.60650        2.16540
H          0.66450       -1.59950        1.31970
H          0.15250       -0.14750        2.16690
H         -1.02020       -0.41040       -0.06340
H          0.85670       -1.56880       -1.24190
H          0.34360       -0.12830       -2.14110
