15
gdb 13323	6.22519	1.14588	0.99944	3.8264	62.99	-0.2514	-0.0226	0.2287	1118.9433	0.118567	-399.825597	-399.817796	-399.816852	-399.859527	26.251
O          0.13590       -0.18420        0.04640
C          0.05050        0.99820       -0.15480
C          1.24930        1.93350       -0.14780
C          1.18660        2.96400       -1.22900
N          0.31500        3.02230       -2.15040
C          0.65540        4.19170       -2.97500
C          1.94020        4.76870       -2.32380
O          2.17150        3.90040       -1.18850
H         -0.92310        1.49530       -0.33640
H          1.28230        2.44770        0.82370
H          2.17000        1.34650       -0.22140
H          0.81330        3.88280       -4.01310
H         -0.17530        4.90500       -2.97080
H          2.81880        4.72250       -2.97290
H          1.82560        5.79060       -1.95330
