15
gdb 4846	5.43394	1.32209	1.13616	2.0174	63.84	-0.189	0.0529	0.2419	1030.4213	0.120638	-396.009195	-396.001474	-396.00053	-396.041576	28.2
C          0.47390        1.01780       -0.52650
N         -0.35190        0.15290        0.32670
C          0.33020       -0.53970        1.33770
C          0.58060       -0.31740        2.66220
N          1.28000       -1.38070        3.22280
C          1.45310       -2.21380        2.23560
O          2.09450       -3.39620        2.27920
N          0.91330       -1.78250        1.06830
H          1.21880        0.40950       -1.04790
H         -0.16270        1.48790       -1.28180
H          1.00870        1.80290        0.02900
H         -1.12130        0.67720        0.72310
H          0.29460        0.53820        3.25480
H          2.39890       -3.49800        3.18990
H          0.85150       -2.29190        0.20320
