16
gdb 8633	2.42802	1.74739	1.38788	4.5469	68.98	-0.334	-0.009	0.325	976.7633	0.129066	-342.815304	-342.806329	-342.805384	-342.848608	31.684
C         -0.09970        1.55430        0.09160
C          0.01130        0.03200        0.00020
C          0.74780       -0.48850       -1.27860
C          2.22250       -0.01060       -1.34830
C          0.72680       -1.96330       -1.25030
N          0.73210       -3.11610       -1.18410
C          0.02950       -0.03120       -2.48370
N         -0.52710        0.36920       -3.41310
H          0.87810        2.03590        0.17920
H         -0.61080        1.97040       -0.78150
H         -0.67880        1.82460        0.97870
H          0.55520       -0.36960        0.86140
H         -0.98600       -0.41730        0.01620
H          2.74920       -0.32890       -0.44550
H          2.72370       -0.43830       -2.21830
H          2.26050        1.07710       -1.42350
