19
gdb 11528	4.22656	1.11624	1.00799	3.8946	73.4	-0.2393	0.0332	0.2725	1211.949	0.165174	-365.072982	-365.064127	-365.063183	-365.107398	31.33
C         -0.32550        1.34430       -0.10630
N          0.05880       -0.04900        0.03140
C          0.09060       -0.64070        1.35950
C         -1.27500       -0.83410        1.99010
C         -2.11360       -2.02620        1.61050
C         -1.48010       -1.95490        2.97780
C          0.36480       -0.77730       -1.07980
O          0.34180       -0.37160       -2.22320
H          0.30070        1.97860        0.53250
H         -0.18790        1.62490       -1.15060
H         -1.37450        1.50330        0.16950
H          0.59010       -1.61260        1.27730
H          0.71680       -0.01480        2.01100
H         -1.81390        0.08560        2.19910
H         -3.18690       -1.89760        1.53030
H         -1.69880       -2.72930        0.89510
H         -0.63990       -2.61090        3.18260
H         -2.11730       -1.77450        3.83620
H          0.65550       -1.81450       -0.81830
