13
gdb 9984	3.43755	1.36817	1.13707	5.412	62.01	-0.2577	-0.0433	0.2144	1024.1973	0.092578	-398.592311	-398.583899	-398.582955	-398.626587	28.255
O         -0.24540       -0.00910       -0.02590
C         -0.08690        1.17740       -0.00840
N          1.14390        1.85300       -0.02770
C          1.12480        3.32100        0.04330
C          1.13030        3.84120        1.40850
C          1.13510        4.25750        2.53480
C          2.39270        1.21090       -0.03130
O          2.58290        0.02920       -0.05190
H         -0.92390        1.90360        0.01760
H          1.98950        3.70250       -0.50940
H          0.24000        3.67890       -0.49320
H          1.13950        4.62540        3.53160
H          3.21010        1.95950       -0.02040
