22
gdb 14964	3.8941	1.33794	1.10763	0.1974	84.7	-0.2248	0.0343	0.259	1174.0766	0.202163	-313.102633	-313.094246	-313.093302	-313.135514	32.172
C          0.06200        1.56960       -0.14990
C         -0.05100        0.04510        0.03010
C          0.65860       -0.47940        1.25720
C         -0.01380       -0.89630        2.33410
C          0.62190       -1.44650        3.58500
C          2.09960       -1.80630        3.37630
C          2.81590       -0.70690        2.58510
C          2.17190       -0.52140        1.20440
H          1.10380        1.89350       -0.23740
H         -0.46080        1.89420       -1.05530
H         -0.37900        2.09400        0.70380
H         -1.11040       -0.23040        0.07880
H          0.35750       -0.44680       -0.86440
H         -1.10180       -0.84410        2.32670
H          0.52590       -0.71100        4.39870
H          0.06260       -2.32730        3.92630
H          2.59010       -1.97410        4.34120
H          2.16680       -2.75010        2.81940
H          2.75360        0.23690        3.14270
H          3.88130       -0.93760        2.47590
H          2.47920       -1.33950        0.53430
H          2.55510        0.39280        0.73410
