16
gdb 16986	4.01935	2.19734	2.08782	1.117	64.2	-0.2407	0.0414	0.2821	719.7229	0.132212	-383.609313	-383.603589	-383.602645	-383.638741	24.136
C          0.00860        1.60670       -0.25510
O          1.43860        1.48600        0.14000
C          1.04510        0.30050        0.88280
C          1.19220       -1.25800        1.01280
C         -0.39960       -1.03830        1.15750
O         -0.52990       -0.38770        2.40510
C          0.49560        0.61950        2.29700
C         -0.17200        0.08000        0.05070
H         -0.51390        2.32360        0.38250
H         -0.08250        1.89000       -1.30570
H          1.48760       -1.76350        0.09520
H          1.68800       -1.68190        1.89060
H         -1.11790       -1.85180        1.06590
H          1.24960        0.48710        3.08060
H          0.05580        1.61620        2.38980
H          0.11200       -0.44280       -0.86460
