17
gdb 11335	4.4217	1.38866	1.25728	3.6213	67.74	-0.2405	0.0354	0.2759	1018.6619	0.141933	-401.011919	-401.003623	-401.002679	-401.045841	29.396
C         -0.22640        1.29340        0.62420
N         -0.13020       -0.12200        0.30710
C         -1.10080       -0.71320       -0.22950
C         -1.13250       -2.17170       -0.63550
C         -2.62540       -2.46950       -0.76610
O         -3.08370       -2.87740        0.51270
C         -3.16880       -1.08770       -1.16870
O         -2.30660       -0.13010       -0.55270
H          0.58130        1.82950        0.11230
H         -1.18170        1.75680        0.35390
H         -0.06160        1.42970        1.69930
H         -0.62550       -2.29720       -1.59830
H         -0.64250       -2.80890        0.09970
H         -2.84820       -3.22660       -1.52960
H         -4.03960       -2.98410        0.47500
H         -3.15040       -0.95490       -2.25920
H         -4.18830       -0.91360       -0.81070
