17
gdb 17261	3.22736	2.09108	1.77822	1.8307	68.85	-0.2375	0.0675	0.305	823.9798	0.141582	-363.7627	-363.75549	-363.754545	-363.793713	28.236
C          0.03590        1.48320        0.08290
C         -0.02410       -0.00530       -0.04770
C          0.61420       -0.95330       -1.10720
C          0.05510       -1.81980        0.04480
O          0.61280       -0.84070        1.01000
C         -1.22360       -0.97520        0.02020
C         -2.49800       -0.96900        0.73520
N         -2.43370       -1.12450       -0.75370
H          1.07410        1.82770        0.07840
H         -0.48730        1.96060       -0.75220
H         -0.43230        1.80530        1.01810
H          0.13440       -1.03030       -2.08630
H          1.70330       -0.90840       -1.15740
H          0.19840       -2.87800        0.25650
H         -2.84380       -1.85180        1.26520
H         -2.86020       -0.02700        1.14000
H         -2.68850       -0.24890       -1.20630
