18
gdb 7148	6.65945	0.83937	0.7596	2.7795	66.66	-0.2622	0.0184	0.2806	1515.3408	0.150634	-422.098045	-422.0882	-422.087255	-422.134447	32.413
C          0.08290        1.50180       -0.17720
C          0.01740       -0.00580       -0.02970
O          0.67210       -0.58700       -1.17590
C          0.70370       -1.93480       -1.21060
O          0.23430       -2.65200       -0.37080
C          1.42360       -2.37950       -2.47460
O          1.46210       -3.77350       -2.52040
C          2.11780       -4.25970       -3.66820
H          1.12010        1.84630       -0.21790
H         -0.42390        1.82800       -1.08980
H         -0.40540        1.97920        0.67750
H          0.52150       -0.35210        0.87810
H         -1.01380       -0.37040        0.01060
H          0.89620       -1.94860       -3.34300
H          2.43360       -1.93470       -2.47230
H          3.16610       -3.92430       -3.71400
H          2.09680       -5.35010       -3.61330
H          1.61460       -3.93880       -4.59420
