13
gdb 21644	5.81031	1.65348	1.28883	2.3921	66.9	-0.1976	-0.0696	0.128	876.134	0.098494	-390.967383	-390.960691	-390.959747	-390.998126	25.663
N         -0.00940        1.37730        0.08220
C         -0.03710        0.00230       -0.04150
N         -1.17460       -0.62360       -0.02920
N         -1.11190       -1.96100       -0.25330
C          0.02620       -2.70560       -0.47290
N         -0.04470       -3.97160       -0.68380
C          1.22300       -1.85810       -0.41340
N          1.20990       -0.58750       -0.21620
H          0.84960        1.73490        0.47140
H         -0.84750        1.78150        0.47220
H         -2.00140       -2.43710       -0.25220
H          0.88690       -4.35900       -0.82070
H          2.18740       -2.35020       -0.54330
