18
gdb 12840	2.91855	2.4379	1.76113	1.9717	71.48	-0.2392	0.0126	0.2517	819.5561	0.154933	-347.80047	-347.793438	-347.792494	-347.831447	27.611
C         -0.22230        1.52550        0.03620
C          0.07010        0.03510       -0.03430
C         -1.09580       -0.88700        0.40990
O         -0.39860       -1.30300        1.60230
C          0.80670       -0.61150        1.17570
C          1.83900       -1.50940        0.55440
C          1.83800       -1.41340       -0.77600
C          0.83070       -0.41600       -1.30120
H          0.70070        2.11120       -0.03900
H         -0.88130        1.83780       -0.78240
H         -0.71280        1.78880        0.97910
H         -2.04050       -0.38300        0.64860
H         -1.29990       -1.72990       -0.26390
H          1.18680        0.03030        1.97980
H          2.47970       -2.15960        1.13930
H          2.48920       -1.97440       -1.43900
H          0.16230       -0.85870       -2.05150
H          1.32750        0.42820       -1.79920
