16
gdb 13176	3.71615	1.49266	1.13152	1.2158	66.61	-0.2445	0.0255	0.27	1031.3251	0.12857	-383.673769	-383.665312	-383.664368	-383.707249	30.091
O         -0.09270        1.44730       -0.01020
C          0.05140        0.02990        0.04290
C          0.63800       -0.51310       -1.18140
C          1.17060       -0.91490       -2.18130
C          0.87100       -0.36350        1.28240
C          0.22290       -0.04790        2.64460
C          0.26320       -1.57600        2.85100
O          0.83430       -1.78120        1.53790
H          0.71440        1.80680       -0.39460
H         -0.96280       -0.36760        0.17060
H          1.62220       -1.28680       -3.06790
H          1.90150       -0.00210        1.15870
H          0.83150        0.54070        3.33130
H         -0.77150        0.39620        2.57840
H          0.93470       -1.92780        3.64320
H         -0.70470       -2.07950        2.95750
