14
gdb 2453	5.65662	2.49034	2.0464	1.9409	56.47	-0.2303	-0.0255	0.2049	640.6005	0.114566	-324.574829	-324.569068	-324.568124	-324.604457	22.109
O          0.01240        0.34990        0.85210
C         -0.01180        1.35500        0.19460
C         -1.26730        2.10430       -0.28130
C         -0.73770        3.41320       -0.82150
C          0.08240        4.24400        0.09530
N          0.75300        3.39440       -0.89710
C          1.21030        2.11790       -0.34550
H         -1.75210        1.50570       -1.06200
H         -1.98210        2.20380        0.54010
H         -1.23980        3.87650       -1.66490
H          0.18410        5.31160       -0.07510
H          0.12700        3.94960        1.14410
H          1.96220        2.25120        0.43840
H          1.67030        1.51850       -1.14140
