17
gdb 18962	6.39212	1.39227	1.3787	1.5229	67.97	-0.2235	0.062	0.2855	949.0938	0.141268	-363.735719	-363.72881	-363.727866	-363.766881	26.824
C          0.05280        1.64090        0.07290
C          0.06100        0.11420        0.08910
N          0.65320       -0.41960       -1.13980
C         -0.25720       -0.49870       -2.32290
C          0.50470       -1.73150       -2.88640
O         -0.68830       -2.53310       -3.10810
C         -0.98550       -1.82260       -1.87420
C          0.49530       -1.88880       -1.33950
H          1.06510        2.02620       -0.07720
H         -0.57770        2.02580       -0.73580
H         -0.33710        2.03700        1.01540
H          0.67480       -0.24220        0.92570
H         -0.96300       -0.26320        0.26440
H         -0.65360        0.36610       -2.85550
H          1.32960       -1.78510       -3.59410
H         -1.94850       -2.00840       -1.39980
H          0.97680       -2.64410       -0.71690
