15
gdb 16291	3.27492	1.83305	1.44466	4.0474	66.76	-0.2592	-0.005	0.2542	880.9568	0.120373	-358.800562	-358.793326	-358.792382	-358.83193	27.292
N          0.21460        1.49490        0.00850
C         -0.00550        0.07310        0.03100
C          0.15530       -0.67640        1.37920
N         -1.16480       -1.39140        1.22870
C         -2.17870       -0.33710        1.22500
C         -1.42310       -0.55970       -0.03370
C         -2.02240       -1.08880       -1.21960
N         -2.47640       -1.47170       -2.21320
H          0.11730        1.86920       -0.92970
H         -0.44450        1.98760        0.60260
H          0.62380       -0.38340       -0.73610
H          0.97900       -1.39020        1.40070
H          0.20040       -0.04320        2.27100
H         -3.19600       -0.71290        1.25830
H         -2.00750        0.57260        1.79900
