23
gdb 13624	3.5336	1.18099	1.03034	1.2651	82.38	-0.2193	0.082	0.3014	1272.1917	0.210426	-330.302767	-330.29289	-330.291946	-330.337267	36.294
C          0.68680        1.46240       -4.13550
C          1.07370        0.31820       -3.19310
C          0.14320       -0.91100       -3.25160
C          0.15590       -1.59150       -4.63000
C          0.55310       -1.90010       -2.17070
C          0.09890       -1.75310       -0.75790
N         -0.33910       -2.88990       -1.56010
C         -1.74550       -2.94910       -1.92600
H          0.75780        1.17210       -5.18810
H         -0.34100        1.79600       -3.95150
H          1.34510        2.32460       -3.98980
H          2.10190       -0.00340       -3.40950
H          1.08480        0.69220       -2.16220
H         -0.87640       -0.56030       -3.04620
H          1.16710       -1.93220       -4.88330
H         -0.50040       -2.46640       -4.64560
H         -0.17610       -0.91380       -5.42150
H          1.55550       -2.30220       -2.33020
H          0.75860       -1.97560        0.07740
H         -0.62920       -0.96520       -0.55960
H         -2.29140       -3.44930       -1.11920
H         -2.22400       -1.97140       -2.09470
H         -1.86430       -3.55060       -2.83310
