18
gdb 5846	3.23461	1.50984	1.33791	3.0189	64.75	-0.2638	0.0177	0.2815	1018.3984	0.149875	-422.110392	-422.100476	-422.099532	-422.145093	34.733
C         -0.03750        1.34170        0.04990
O          0.02710       -0.08660       -0.03760
C          0.65340       -0.56730       -1.13650
O          1.12880        0.12930       -1.98980
C          0.65520       -2.10360       -1.11250
C          1.41690       -2.59630        0.13090
C         -0.79550       -2.61790       -1.12320
O          1.33070       -2.49040       -2.29750
H          0.96680        1.77240        0.07410
H         -0.57480        1.75670       -0.80650
H         -0.56880        1.55940        0.97650
H          0.95200       -2.23920        1.05210
H          1.42080       -3.69230        0.14920
H          2.45380       -2.25080        0.09790
H         -1.30480       -2.28760       -2.03260
H         -0.79710       -3.71390       -1.10770
H         -1.35220       -2.26150       -0.25410
H          1.34770       -3.45300       -2.31270
