20
gdb 11110	6.62484	0.96734	0.91013	0.9084	82.14	-0.2528	0.0514	0.3042	1318.8194	0.176002	-311.832788	-311.823946	-311.823002	-311.866221	33.064
C          0.48810        1.27860       -0.53280
C          0.08190       -0.15920       -0.19710
C         -1.32450       -0.26830        0.39480
C         -2.48450       -0.08920       -0.63030
C         -2.65510       -1.64320       -0.67830
C         -1.80910       -1.72700        0.63480
C         -3.99380       -2.19420       -0.67960
C         -5.11230       -2.63720       -0.65960
H          1.49450        1.31840       -0.96070
H         -0.19810        1.72990       -1.25740
H          0.48130        1.90850        0.36370
H          0.15150       -0.78190       -1.09970
H          0.79820       -0.58430        0.51840
H         -1.39370        0.38220        1.27260
H         -3.36160        0.39160       -0.19220
H         -2.25110        0.40260       -1.57830
H         -2.08780       -2.05830       -1.51760
H         -1.04490       -2.50800        0.67250
H         -2.45120       -1.81780        1.51350
H         -6.09770       -3.03200       -0.64830
