15
gdb 5709	4.89387	1.9936	1.44217	2.7315	67.42	-0.1991	0.0411	0.2401	822.2255	0.122197	-362.684717	-362.678336	-362.677391	-362.715354	24.257
C         -0.06170        1.49500        0.10100
O          1.24450        1.92890       -0.29940
C          2.11930        0.82160       -0.61320
C          1.27940       -0.39390       -0.38620
C          0.04180        0.01010        0.01970
N         -0.73770       -1.08990        0.23160
C          0.01810       -2.21430       -0.04480
C          1.28070       -1.81450       -0.43270
H         -0.27790        1.87210        1.11320
H         -0.81450        1.92730       -0.57710
H          2.46750        0.93220       -1.65040
H          3.00350        0.87720        0.03840
H         -1.69560       -1.09960        0.53500
H         -0.40750       -3.19980        0.05820
H          2.08820       -2.47460       -0.71040
