14
gdb 10372	2.52888	2.12623	1.41578	4.7892	66.13	-0.3253	-0.0113	0.314	885.895	0.107866	-341.596246	-341.588808	-341.587864	-341.628156	26.747
N          0.10310       -1.18820        0.08650
C          0.03340       -0.03620        0.03330
C         -0.01530        1.42530        0.01030
C         -0.19860        2.03310        1.45720
C          1.33630        2.21890        1.54730
C          1.42970        2.06450        0.00900
C         -0.93730        1.90080       -1.01600
N         -1.65460        2.33140       -1.81280
H         -0.73650        2.98010        1.39150
H         -0.69000        1.38320        2.18080
H          1.69330        3.15860        1.96910
H          1.81810        1.39060        2.07100
H          2.21940        1.43940       -0.40670
H          1.40660        3.02150       -0.51460
