17
gdb 2370	4.34336	1.89225	1.59633	2.7316	60.2	-0.2538	0.0726	0.3263	819.3809	0.146991	-346.829378	-346.821353	-346.820409	-346.861558	29.739
C          0.43640        0.62870       -0.64170
C          0.04260       -0.03020        0.67880
O         -0.20460        0.95990        1.68120
C         -1.13770       -0.99610        0.63400
C         -2.24740       -0.93720       -0.40450
C         -1.31230       -2.12010       -0.34450
O         -0.33750       -2.29750       -1.33450
H          1.29930        1.27820       -0.47300
H          0.68360       -0.11990       -1.39600
H         -0.38020        1.25110       -1.02800
H          0.90770       -0.58350        1.06410
H         -0.96440        1.47530        1.38760
H         -1.46200       -1.23690        1.64280
H         -3.27810       -1.05720       -0.08800
H         -2.10750       -0.26500       -1.24430
H         -1.70900       -3.05310        0.05600
H         -0.78290       -2.57830       -2.14060
