18
gdb 19209	2.60904	2.55242	2.5287	2.2488	65.52	-0.2462	0.0731	0.3193	737.7541	0.157832	-384.954945	-384.948587	-384.947643	-384.985722	25.202
C         -0.03450        1.54200        0.01100
C          1.43730        2.04110       -0.00100
C          2.34360        0.80460       -0.01660
O          2.13900        0.02920        1.14850
C          0.79680       -0.47020        1.22550
C          0.00390        0.00370        0.00240
C          0.77220       -0.45700       -1.24130
O          2.11570        0.04170       -1.18570
H         -0.56680        1.89900        0.89810
H         -0.58440        1.90840       -0.86140
H          1.65210        2.65070       -0.88300
H          1.66970        2.64130        0.88290
H          3.40450        1.06080       -0.02590
H          0.83910       -1.56700        1.26590
H          0.33590       -0.11470        2.15750
H         -1.00170       -0.42700        0.01010
H          0.81350       -1.55330       -1.29420
H          0.29290       -0.09160       -2.16010
