14
gdb 11142	5.27816	1.35634	1.17349	3.0388	70.13	-0.2435	-0.0521	0.1914	981.0909	0.106723	-345.403191	-345.396017	-345.395073	-345.434983	26.734
O          0.01150       -0.04140        0.27210
C          0.01220        1.15580        0.11500
C         -1.23420        2.04390       -0.03270
C         -0.70220        3.50200       -0.05000
C          0.81130        3.32430       -0.07460
C          1.19290        2.04910        0.02530
C         -1.18520        4.31700       -1.16040
C         -1.57120        4.98630       -2.08100
H         -1.73880        1.79330       -0.96960
H         -1.93900        1.85170        0.77930
H         -0.97440        4.00990        0.88630
H          1.46560        4.18450       -0.15850
H          2.20740        1.67300        0.05330
H         -1.91880        5.57720       -2.89210
