14
gdb 11937	3.3475	1.85838	1.524	2.6465	66.23	-0.2241	0.0151	0.2392	852.0319	0.104586	-382.450458	-382.442873	-382.441929	-382.482062	28.585
O         -0.07720        1.44840        0.07400
C         -0.04120        0.07640        0.03430
C         -0.29500       -0.75320       -1.19460
C         -1.17900       -0.95040        0.02510
O         -0.49380       -1.78150        0.97420
C          0.55910       -0.79120        1.13310
C         -2.59220       -0.85500        0.04590
C         -3.79210       -0.76780        0.06550
H          0.42580        1.79400       -0.67090
H         -0.77620       -0.21160       -2.00330
H          0.37670       -1.55520       -1.49110
H          1.55750       -1.21320        0.97090
H          0.50030       -0.31690        2.11870
H         -4.85100       -0.69230        0.08700
