10
gdb 14582	48.41504	0.56091	0.55449	3.6667	100.86	-0.2595	-0.1043	0.1553	1801.5943	0.057802	-342.932283	-342.924293	-342.923348	-342.965013	26.649
O         -0.11200       -0.03540        0.00210
C         -0.02670        1.17170        0.00820
C          1.21800        1.89340        0.00020
C          2.25620        2.52850       -0.00630
C          3.40540        3.23020       -0.01350
C          4.44690        3.86420       -0.01980
C          5.60040        4.56760       -0.02670
C          6.63310        5.19720       -0.03280
H         -0.92490        1.82070        0.02060
H          7.54090        5.74940       -0.03810
