15
gdb 3533	7.15977	2.30066	2.23	1.5147	60.59	-0.2522	0.0708	0.323	633.7925	0.126275	-308.434866	-308.42932	-308.428376	-308.463819	22.367
O          0.24100        1.42830       -0.17590
C          0.08250        0.03660       -0.06780
C          0.06210       -0.64220        1.31660
C         -1.45290       -0.28230        1.55430
C         -1.81990       -1.74200        1.88150
C         -0.77000       -1.84910        0.75830
C         -1.32610       -0.58530        0.01370
H         -0.34240        1.85070        0.46410
H          0.75930       -0.40180       -0.80800
H          0.83840       -0.69570        2.08180
H         -1.84320        0.63010        2.00990
H         -1.52680       -2.11500        2.86820
H         -2.83830       -2.06120        1.63730
H         -0.35650       -2.73730        0.27890
H         -2.13980       -0.57370       -0.71350
