15
gdb 16832	3.26124	2.17387	1.65029	3.9472	60.59	-0.248	-0.006	0.2421	794.8318	0.119644	-399.798339	-399.791479	-399.790535	-399.829602	26.102
O         -0.15680        1.45890        0.30090
C          0.00430        0.07720        0.01410
C          0.71890       -0.69030        1.14500
C         -0.42320       -1.18080        2.04270
O         -0.38740       -1.39400        3.22170
N         -1.57620       -1.37140        1.21780
C         -2.38300       -0.15480        0.99180
C         -1.38000       -0.58870       -0.01250
H          0.71810        1.85480        0.37070
H          0.50740       -0.05870       -0.95120
H          1.23210       -1.57040        0.73890
H          1.44670       -0.10150        1.70690
H         -3.43930       -0.33730        0.81990
H         -2.15050        0.72310        1.58510
H         -1.70380       -1.06190       -0.93390
