16
gdb 9653	3.51309	1.36998	1.34107	4.2184	66.56	-0.2445	0.025	0.2695	997.1583	0.129621	-379.896832	-379.888282	-379.887338	-379.929746	30.817
C          0.02450        1.07140        0.39440
O         -0.14760       -0.04480       -0.47480
C         -1.37170       -0.66900       -0.31020
C         -1.52810       -2.03380       -0.88630
C         -1.42510       -1.87110        0.64180
N         -0.21650       -2.19430        1.35260
C         -2.63950       -2.05340        1.39960
N         -3.63030       -2.19890        1.97920
H          1.00380        1.49720        0.16840
H         -0.74860        1.83080        0.21510
H         -0.01130        0.76770        1.44780
H         -2.23370       -0.00290       -0.31070
H         -2.48210       -2.30060       -1.32600
H         -0.65400       -2.46920       -1.35780
H         -0.03940       -3.19360        1.33270
H          0.56250       -1.72910        0.89660
