15
gdb 13057	4.07877	1.31939	1.10772	2.8577	64.43	-0.2504	-0.0316	0.2188	1049.3709	0.11831	-399.830751	-399.82293	-399.821986	-399.86412	27.525
O          0.19080       -0.08760       -0.95100
C         -0.03600        0.90000       -0.28780
N          0.92040        1.68820        0.28520
C          2.31070        1.34640        0.26210
C          3.37350        2.19320       -0.52190
C          4.36310        2.03990        0.67280
C          3.14640        1.63870        1.52210
O          2.85760        1.74550        2.67830
H         -1.05700        1.27590       -0.08430
H          0.62240        2.42800        0.90310
H          2.39010        0.29370       -0.02790
H          3.68540        1.78830       -1.48430
H          3.04580        3.22730       -0.64870
H          5.06170        1.20760        0.54440
H          4.91470        2.91840        1.01200
