14
gdb 8625	2.12455	2.12395	1.41787	1.2962	58.97	-0.2636	-0.0587	0.2049	907.2904	0.10223	-419.695553	-419.686549	-419.685605	-419.730059	29.674
C          0.25390        1.64400       -0.09110
C          0.06200        0.10310        0.06960
C          0.95090       -0.35030        1.22720
O          0.60880       -0.26200        2.37850
C         -1.41580       -0.14570        0.36930
O         -2.25010       -0.20650       -0.49720
C          0.48280       -0.55020       -1.24650
O          1.63330       -0.78950       -1.51060
H          1.30030        1.86580       -0.31690
H         -0.37390        2.01330       -0.90640
H         -0.02780        2.15170        0.83520
H          1.93940       -0.74880        0.92760
H         -1.66300       -0.24770        1.44350
H         -0.34760       -0.76980       -1.94470
