16
gdb 12253	3.26316	1.59114	1.20579	0.8096	62.1	-0.2518	0.0123	0.2641	992.5193	0.13103	-417.040832	-417.032587	-417.031643	-417.073828	29.712
N          0.22700        1.47880        0.21670
C          0.07020        0.05040        0.06070
C         -1.34470       -0.57420        0.21720
C         -2.54890        0.34370        0.17400
O         -3.73910       -0.39230       -0.03030
O         -1.17710       -1.25050       -1.08360
C          0.02140       -0.60290       -1.31920
N          0.74550       -0.55960       -2.34100
H          1.21000        1.71350        0.29750
H         -0.11600        1.97120       -0.60170
H          0.79120       -0.45640        0.70730
H         -1.45970       -1.32370        1.00460
H         -2.64760        0.86310        1.13190
H         -2.41010        1.10940       -0.60540
H         -3.61560       -0.89970       -0.84100
H          0.35510       -1.11210       -3.10650
