17
gdb 2098	4.77072	2.3799	1.72725	1.1795	65.89	-0.2429	0.022	0.2649	756.3179	0.149678	-309.726244	-309.719536	-309.718592	-309.756595	25.614
C         -0.07670        1.54540       -0.00350
C          0.01510        0.01350        0.01210
C          0.73510       -0.51360       -1.23610
O          0.99350       -1.90330       -1.14620
C          1.90160       -2.22210       -0.11040
C          1.61620       -1.49320        1.17370
C          0.73830       -0.49520        1.23630
H          0.92040        1.99920        0.00380
H         -0.60430        1.90100       -0.89510
H         -0.61750        1.91460        0.87370
H         -1.00850       -0.38960        0.01130
H          0.12490       -0.37380       -2.13360
H          1.67680        0.04530       -1.37620
H          1.82370       -3.30600        0.03920
H          2.94190       -2.02220       -0.43080
H          2.16270       -1.82390        2.05320
H          0.53210        0.00070        2.18250
