22
gdb 7539	4.37378	0.99876	0.93888	1.3011	78.83	-0.2566	0.0807	0.3373	1338.9071	0.198333	-350.194489	-350.184481	-350.183537	-350.229165	36.427
C         -0.04810        1.43570       -0.25580
C          0.06820       -0.03900        0.06490
C          1.39300       -0.76280       -0.01520
C          0.70830       -0.58830        1.32660
C          1.32590        0.36500        2.33560
C          0.04780       -1.81920        1.93240
C          1.00950       -2.76450        2.64780
O          0.26160       -3.90040        3.06150
H          0.84940        1.99440        0.02320
H         -0.19660        1.58160       -1.33170
H         -0.89940        1.89420        0.26020
H         -0.78760       -0.61580       -0.27970
H          1.42320       -1.75180       -0.46170
H          2.27800       -0.16440       -0.21110
H          1.75940        1.24590        1.85650
H          0.57810        0.71280        3.05860
H          2.12940       -0.11870        2.90170
H         -0.73430       -1.51710        2.64130
H         -0.45190       -2.39590        1.14550
H          1.82400       -3.04980        1.96240
H          1.47090       -2.26340        3.51250
H          0.85310       -4.49250        3.53470
