19
gdb 6488	3.77971	1.33453	1.2763	3.3059	72.37	-0.2371	0.0345	0.2716	1075.0748	0.163683	-365.091173	-365.081898	-365.080954	-365.125879	33.414
C          1.66210        1.15080       -2.11630
C          1.46730       -0.35900       -2.06860
O          2.33210       -1.14000       -2.41880
N          0.24770       -0.76700       -1.59480
C         -0.06580       -2.15240       -1.34650
C          0.63420       -2.76450       -0.14900
C         -1.47900       -2.56200       -1.68190
C         -0.33230       -3.00440       -2.55940
H          0.72150        1.70770       -2.14630
H          2.22460        1.46930       -1.23230
H          2.25960        1.39700       -2.99540
H         -0.37060       -0.07170       -1.20730
H          0.37770       -2.23050        0.77320
H          0.34600       -3.81250       -0.02360
H          1.71770       -2.71980       -0.28870
H         -1.95600       -3.29320       -1.03860
H         -2.14830       -1.80310       -2.07340
H         -0.22500       -2.53580       -3.52940
H         -0.01980       -4.04170       -2.52120
