15
gdb 14539	4.68739	1.60488	1.45394	4.5566	66.01	-0.2305	0.0192	0.2497	870.1194	0.120385	-358.791117	-358.783871	-358.782927	-358.822348	27.428
N         -0.09090        1.44900       -0.03330
C         -0.06980        0.00170       -0.03480
C          1.03560       -0.57810        0.68650
N          1.93260       -1.03980        1.25270
C         -1.35370       -0.82010        0.06400
C         -2.45750       -0.12240       -0.73370
N         -1.54170       -0.00400       -1.92390
C         -0.54400       -0.83060       -1.22260
H          0.86260        1.79690       -0.07020
H         -0.53950        1.73780       -0.90320
H         -1.49290       -1.56650        0.83470
H         -3.30180       -0.79160       -0.91940
H         -2.82420        0.83630       -0.35510
H         -1.91950       -0.47200       -2.73910
H          0.05310       -1.58910       -1.71470
