17
gdb 15237	2.88451	1.61365	1.39076	3.0138	69.6	-0.2229	0.0245	0.2475	974.8973	0.142464	-360.020276	-360.011432	-360.010488	-360.053643	31.651
C          0.11110        1.16730       -0.50910
N         -0.26000        0.24130        0.55620
C         -1.46830       -0.48440        0.33630
C         -1.59080       -1.67250       -0.58210
N         -0.48080       -2.09930       -1.37000
C         -1.65350       -1.86010        0.96830
C         -0.52870       -2.47880        1.59540
N          0.41410       -2.97160        2.05500
H          1.04170        1.67090       -0.23460
H          0.24030        0.69820       -1.49650
H         -0.66420        1.93610       -0.60600
H          0.50760       -0.34690        0.85390
H         -2.35060        0.15060        0.39300
H         -2.55070       -1.81350       -1.07120
H          0.39490       -1.76170       -0.98560
H         -0.41720       -3.11190       -1.40970
H         -2.61270       -2.07920        1.42410
