19
gdb 5117	3.26166	1.95792	1.2521	1.8963	79.78	-0.187	0.0538	0.2409	1001.5012	0.165026	-327.97487	-327.965809	-327.964864	-328.009102	32.115
C         -0.00460        1.44110        0.03250
N          0.02170       -0.00420        0.01920
C          0.05430       -0.78510       -1.11030
C          0.07180       -2.10070       -0.72270
C          0.04910       -2.13290        0.70330
C          0.05800       -3.37140        1.54980
C          0.01830       -0.81940        1.13700
C         -0.01450       -0.24090        2.51370
H          0.86700        1.85450        0.55240
H          0.00640        1.80460       -0.99660
H         -0.90790        1.82250        0.52200
H          0.06180       -0.33020       -2.08850
H          0.09790       -2.95550       -1.38220
H          0.95300       -3.97910        1.36940
H          0.03590       -3.13770        2.61810
H         -0.80740       -4.01170        1.34000
H          0.85320        0.39910        2.72130
H         -0.91100        0.36750        2.69240
H         -0.01240       -1.03960        3.25820
