20
gdb 7658	3.03258	2.14701	1.50845	1.5519	74.98	-0.2512	0.081	0.3322	907.2052	0.176718	-348.943292	-348.935095	-348.934151	-348.975353	32.137
C         -0.12070        1.54210        0.07870
C         -0.02700        0.01130       -0.00370
C         -1.47100       -0.50130       -0.19060
C          1.16330       -0.58890       -0.86290
C          2.12830       -0.14300        0.27870
C          0.90230       -0.76560        1.00350
C          1.06380       -1.91770       -0.06250
O          0.10510       -2.90740       -0.33050
H          0.83470        2.06640        0.06170
H         -0.70980        1.91750       -0.76640
H         -0.64860        1.84060        0.99180
H         -1.76270       -0.49870       -1.24930
H         -1.63860       -1.49640        0.22010
H         -2.16960        0.16960        0.32010
H          1.32200       -0.47850       -1.93930
H          3.06630       -0.69850        0.35140
H          2.30380        0.92040        0.40950
H          0.76000       -0.87400        2.08070
H          2.01260       -2.45150        0.04440
H         -0.55480       -2.56160       -0.93440
