16
gdb 11817	3.47628	1.79663	1.39929	1.2366	66.98	-0.246	-0.0286	0.2174	921.5157	0.128517	-383.728263	-383.720471	-383.719526	-383.760452	28.675
C         -0.49990        1.41380       -0.05850
C          0.10530        0.02420       -0.03270
O          1.35610       -0.08310       -0.77650
C          2.08530       -0.50950        0.37550
C          3.15440       -1.56510        0.35520
C          3.50950       -0.13000        0.66100
C          0.86600       -0.40590        1.23800
O          0.60330       -0.56720        2.39300
H          0.21470        2.15860        0.30240
H         -0.79480        1.68060       -1.07750
H         -1.38900        1.44270        0.57910
H         -0.61210       -0.73370       -0.37420
H          3.15680       -2.29180        1.16060
H          3.41880       -1.95050       -0.62340
H          4.01170        0.43970       -0.11310
H          3.75820        0.14550        1.68040
