19
gdb 13011	2.64043	2.45903	1.66307	1.5728	75.87	-0.2254	0.0165	0.2419	870.5224	0.166182	-327.917394	-327.909731	-327.908787	-327.948716	30.213
C         -0.11650        1.53620        0.04220
C          0.01590        0.00780       -0.01830
C          0.84110       -0.49230       -1.19120
C          1.84710       -1.28410       -0.81550
C          1.88550       -1.40230        0.67100
N          2.12720       -0.08280        1.33620
C          0.74600       -0.60050        1.19460
C         -0.04590       -0.95920        2.42450
H          0.86950        1.99150        0.16140
H         -0.57650        1.92840       -0.87060
H         -0.74350        1.84230        0.88680
H         -0.99590       -0.42270       -0.07380
H          0.62400       -0.19250       -2.21130
H          2.56950       -1.75380       -1.47230
H          2.24350       -2.30090        1.16360
H          2.42970       -0.25770        2.29460
H         -0.45180       -0.06310        2.90970
H         -0.89040       -1.61130        2.17540
H          0.57620       -1.48240        3.15870
