16
gdb 10623	2.61594	1.79783	1.26805	5.2431	66.18	-0.2539	0.0104	0.2644	993.4761	0.129325	-379.905245	-379.896476	-379.895532	-379.938607	31.003
C          0.03480        1.50600       -0.15020
C          0.03630        0.01890        0.08980
O          1.28810       -0.67130        0.06510
C          0.56160       -0.65320        1.30500
C          1.23530        0.06280        2.46010
N          2.34010       -0.75880        2.94390
C         -0.04240       -1.93160        1.65930
N         -0.56690       -2.92230        1.93970
H          0.86570        2.00730        0.34760
H          0.11630        1.70000       -1.22450
H         -0.90600        1.94430        0.19800
H         -0.75790       -0.52120       -0.42790
H          1.52210        1.07030        2.12790
H          0.50620        0.17830        3.27020
H          3.07310       -0.79520        2.24220
H          2.74420       -0.35300        3.78050
