14
gdb 1555	5.80938	1.29599	1.11153	3.9866	54.36	-0.2801	0.0093	0.2894	993.5637	0.111993	-361.711483	-361.703327	-361.702383	-361.744271	27.734
O         -0.07060        1.44710       -0.03720
C          0.03340        0.03500        0.01450
C         -1.38640       -0.52010       -0.02430
C         -1.40660       -2.05480        0.03170
O         -0.78900       -2.58230        1.19360
C         -2.78850       -2.56100       -0.10740
N         -3.87540       -2.94570       -0.18410
H          0.81320        1.81800        0.03940
H          0.60630       -0.35940       -0.84150
H          0.53740       -0.30580        0.92940
H         -1.96000       -0.11410        0.81750
H         -1.88530       -0.18330       -0.93920
H         -0.82260       -2.45670       -0.80480
H         -1.30720       -2.30940        1.96010
