18
gdb 9778	3.49754	1.58651	1.43348	2.3877	63.11	-0.2436	0.0596	0.3032	940.0381	0.154033	-422.072856	-422.064681	-422.063737	-422.105651	30.519
O         -0.08390        1.42990       -0.10490
C         -0.02700        0.02480        0.12990
C         -1.45630       -0.49780       -0.00560
O         -1.97960       -0.11020       -1.26440
C         -1.51130       -2.03710        0.15090
C         -2.29260       -2.25590        1.46350
O         -2.21430       -1.02200        2.16910
C         -2.33550       -0.01740        1.17880
H          0.81090        1.76780       -0.19660
H          0.61330       -0.47230       -0.61280
H          0.35400       -0.20290        1.13590
H         -1.68090        0.79810       -1.40330
H         -2.01190       -2.46970       -0.71720
H         -0.50600       -2.46520        0.20820
H         -3.34400       -2.50620        1.25160
H         -1.87620       -3.03710        2.10400
H         -2.01280        0.93370        1.60740
H         -3.37250        0.07740        0.81960
