22
gdb 13211	4.37876	1.15123	1.08469	1.5114	78.13	-0.2404	0.0808	0.3212	1220.7388	0.199601	-350.195149	-350.185799	-350.184854	-350.229703	33.803
C         -0.13610        1.53700       -0.05570
C          0.01200        0.01600        0.04770
C          0.74460       -0.48470        1.31010
C         -0.00160       -0.11640        2.59960
C          0.98390       -1.99090        1.18280
C          1.63380       -2.79280        2.33530
C          0.34820       -3.63990        2.27870
O         -0.23750       -2.77070        1.28860
H          0.83810        2.03590        0.00720
H         -0.59000        1.81770       -1.01140
H         -0.76980        1.94520        0.73720
H         -0.97590       -0.45940        0.00710
H          0.55820       -0.34500       -0.83350
H          1.74260       -0.01870        1.33180
H         -0.98260       -0.60010        2.62150
H          0.54850       -0.42750        3.49300
H         -0.14930        0.96360        2.67690
H          1.47000       -2.18830        0.21540
H          2.56260       -3.30830        2.08640
H          1.77280       -2.23640        3.26320
H          0.48160       -4.66040        1.89660
H         -0.25360       -3.68150        3.19420
