19
gdb 17484	3.41274	2.36643	1.89976	1.5208	73.59	-0.2322	0.0867	0.319	795.4625	0.16768	-327.899032	-327.892381	-327.891436	-327.929244	27.496
C         -0.01510        1.51280       -0.00390
C          0.03000       -0.00150       -0.00300
C         -1.29900       -0.76340        0.33880
C         -0.49650       -1.64660        1.30160
C          0.69580       -0.75340        1.19670
N          0.76770       -2.12470        0.71920
C          0.83870       -2.13620       -0.76100
C          0.67750       -0.66750       -1.22530
H          0.99050        1.93670       -0.10980
H         -0.62320        1.89080       -0.83340
H         -0.44580        1.90010        0.92580
H         -1.99770       -0.12550        0.88740
H         -1.83340       -1.24620       -0.48760
H         -0.88840       -2.19700        2.15020
H          1.39440       -0.37250        1.93340
H          1.80290       -2.55940       -1.05620
H          0.05790       -2.79070       -1.16090
H          0.06040       -0.57340       -2.12530
H          1.65180       -0.21140       -1.43870
