18
gdb 16612	3.01387	2.11447	1.38297	1.9419	74.03	-0.2242	0.0145	0.2387	932.7744	0.153162	-347.807459	-347.799617	-347.798673	-347.839296	29.657
C          0.07210        1.50730        0.13260
C         -0.00380        0.01850        0.00440
C         -0.05340       -0.72170       -1.11670
C         -0.09130       -0.27700       -2.54530
C         -0.01600       -2.17700       -0.76030
O          1.20080       -2.57460       -0.07980
C          0.04500       -2.27110        0.70440
C          0.01580       -0.85310        1.25320
H          1.01620        1.81350        0.60180
H          0.00090        2.01480       -0.83220
H         -0.73170        1.88860        0.77570
H         -0.17230        0.80810       -2.64290
H          0.81120       -0.59640       -3.08200
H         -0.94310       -0.72340       -3.07400
H         -0.44700       -2.93840       -1.40520
H         -0.36650       -3.10160        1.27190
H          0.88660       -0.64430        1.88750
H         -0.87510       -0.68640        1.87450
