17
gdb 2295	8.03973	1.32649	1.23613	2.2394	61.2	-0.2459	0.072	0.318	991.4927	0.147341	-346.822424	-346.81463	-346.813686	-346.855315	26.717
C          0.00100        1.48200        0.05810
C         -0.13750       -0.01620       -0.14850
O          0.89540       -0.44720       -1.01920
C          0.89480       -1.82490       -1.25340
C         -0.07860       -2.38740       -2.32150
O          1.02290       -2.92620       -3.08120
C          1.99100       -2.27920       -2.22850
H          0.97490        1.71980        0.49500
H         -0.08460        2.01010       -0.89570
H         -0.78130        1.84790        0.72960
H         -0.06390       -0.55130        0.81320
H         -1.12440       -0.25640       -0.57660
H          0.87200       -2.38330       -0.30650
H         -0.78150       -3.16790       -2.00880
H         -0.61700       -1.60150       -2.86850
H          2.48730       -1.43400       -2.72200
H          2.74290       -2.98020       -1.85000
