19
gdb 14975	4.34916	1.39021	1.11781	2.3548	71.66	-0.2433	0.0291	0.2724	1085.5556	0.167265	-365.082669	-365.074725	-365.073781	-365.115181	29.374
C         -0.02230        1.56690       -0.10020
C         -0.00480        0.03870        0.02050
C          0.70820       -0.49950        1.26880
C         -0.03250       -0.16260        2.56140
O          0.62480       -0.71820        3.71040
C          1.18920       -1.93770        3.53450
N          1.33070       -2.61490        2.47720
C          0.88080       -2.02460        1.21960
H          0.99440        1.97490       -0.09150
H         -0.49690        1.87830       -1.03560
H         -0.57580        2.03900        0.71790
H         -1.03400       -0.34570        0.00230
H          0.48860       -0.38480       -0.86340
H          1.70690       -0.04490        1.33120
H         -0.08460        0.91190        2.74850
H         -1.05890       -0.55480        2.52400
H          1.55050       -2.31410        4.49010
H         -0.06610       -2.50220        0.92780
H          1.60520       -2.29620        0.44270
