16
gdb 8057	3.53861	1.69683	1.43003	2.9536	66.09	-0.2342	-0.0289	0.2052	907.6161	0.128622	-383.684576	-383.677094	-383.67615	-383.716406	27.933
C         -0.02060        1.46170        0.07360
C         -0.02720       -0.02820       -0.05800
C          0.64510       -0.94290       -1.11640
C          0.09840       -1.81560        0.03050
O          0.63610       -0.84070        1.00280
C         -1.24300       -1.02540       -0.00880
C         -2.09300       -1.02790        1.22730
O         -3.30010       -1.06540        1.19920
H          1.00770        1.83520        0.08340
H         -0.54780        1.91650       -0.77050
H         -0.51370        1.77380        0.99880
H          0.17650       -1.02360       -2.10000
H          1.73270       -0.86930       -1.15870
H          0.25500       -2.87300        0.24070
H         -1.85400       -1.10920       -0.91050
H         -1.53250       -0.99080        2.18190
