15
gdb 3295	4.44392	2.76194	2.25387	1.077	55.82	-0.2468	0.0651	0.3119	631.1561	0.125748	-345.609374	-345.603122	-345.602178	-345.640064	23.498
O          0.31710        1.26360       -0.46070
C          0.05100       -0.05230       -0.04610
C          0.17010       -0.39050        1.47730
C         -1.31700       -0.78580        1.49000
O         -2.17230        0.35420        1.74990
C         -2.46280        0.51420        0.33870
C         -1.43640       -0.55210       -0.04430
H         -0.06040        1.86670        0.18840
H          0.68460       -0.68870       -0.66870
H          0.85910       -1.21420        1.68480
H          0.41370        0.45040        2.13270
H         -1.63790       -1.68130        2.02790
H         -3.50120        0.24050        0.11240
H         -2.28250        1.53560       -0.01910
H         -1.71390       -1.30400       -0.78140
