15
gdb 3619	4.48256	3.66885	2.89715	1.6932	58.64	-0.2228	0.0893	0.3122	549.1318	0.127803	-308.483617	-308.478576	-308.477632	-308.512097	20.765
C         -0.02480        1.55640        0.02340
C          1.46610        2.00550        0.03200
C          2.19830        0.74060        0.46430
O          1.67540        0.35190        1.78270
C          0.84430       -0.61530        1.13900
C          0.04580        0.02800        0.02070
C          1.47050       -0.44610       -0.20720
H         -0.55490        1.92900        0.90470
H         -0.55480        1.92620       -0.85880
H          1.79980        2.30770       -0.96790
H          1.65530        2.83470        0.71940
H          3.28910        0.77210        0.46290
H          0.54060       -1.48610        1.70820
H         -0.76800       -0.55880       -0.39140
H          1.83370       -1.14170       -0.95010
