11
gdb 163	10.16649	6.4527	5.07931	1.7167	41.77	-0.2337	0.0853	0.319	315.0958	0.091972	-231.093096	-231.088957	-231.088013	-231.119749	15.312
C          0.00650        1.47560        0.09520
C          1.34840        0.78890       -0.07010
C          1.68630        0.04250        1.21570
O          0.39160       -0.61980        1.22110
C          0.06880       -0.01260       -0.03270
H         -0.27720        1.91760        1.04680
H         -0.33680        2.00970       -0.78540
H          2.03040        1.00070       -0.88190
H          2.49070       -0.69270        1.09840
H          1.85700        0.63520        2.12280
H         -0.45290       -0.61190       -0.77000
