18
gdb 12969	2.28846	2.18717	1.79333	1.2407	67.55	-0.2397	0.0723	0.312	873.7301	0.152388	-384.903671	-384.895285	-384.894341	-384.93578	31.89
C         -0.25160        1.57860       -0.03130
C          0.03510        0.08140       -0.02370
C          1.18600       -0.51300       -0.90510
C          1.74250       -1.25110        0.31920
C          2.12170       -0.25710        1.38630
O          2.64300        1.01660        1.11620
C          0.67460       -0.57480        1.20880
O         -0.07260       -1.15060        2.22540
H          0.65660        2.15200        0.16450
H         -0.66150        1.89220       -0.99800
H         -0.99200        1.83660        0.73510
H         -0.88380       -0.47450       -0.23850
H          0.82790       -1.17680       -1.69380
H          1.86280        0.22600       -1.34340
H          2.11500       -2.26860        0.33390
H          2.53280       -0.72990        2.28040
H          3.52750        0.90310        0.75180
H         -0.11350       -0.53010        2.96110
