13
gdb 8605	2.11538	2.0684	1.48971	3.7181	69.44	-0.2868	0.0038	0.2905	912.0254	0.091818	-324.256068	-324.247448	-324.246504	-324.28874	31.068
C         -0.01660        1.54380        0.00640
C         -0.00430       -0.01630        0.01330
C          0.72160       -0.50780        1.19630
C          1.31640       -0.87330        2.17160
C         -1.38420       -0.52980        0.00700
C         -2.52060       -0.91340        0.00470
C          0.69170       -0.48650       -1.21030
N          1.23780       -0.82190       -2.17070
H          1.00830        1.91890       -0.00080
H         -0.54550        1.90270       -0.87840
H         -0.52730        1.89550        0.90400
H          1.84110       -1.21240        3.03120
H         -3.52210       -1.26840        0.00230
