20
gdb 12873	2.55741	2.27356	1.72536	0.1346	79.82	-0.2213	0.0241	0.2455	897.2617	0.1776	-311.87667	-311.868802	-311.867857	-311.908145	31.028
C         -0.11510        1.55750        0.03870
C          0.05060        0.05510        0.07230
C          1.35490       -0.66320       -0.19890
C          2.67310        0.10420       -0.08010
C          2.71930        0.51030        1.37820
C          1.66780        0.04550        2.05640
C          0.72590       -0.73160        1.19290
C          0.06000       -1.96480        1.75970
H          0.71000        2.07380        0.53470
H         -0.16650        1.91920       -0.99490
H         -1.04250        1.85830        0.53900
H         -0.80800       -0.47320       -0.33970
H          1.32320       -1.52620       -0.85560
H          3.53010       -0.52710       -0.35020
H          2.71670        0.97570       -0.74800
H          3.50810        1.13200        1.78780
H          1.48180        0.20730        3.11330
H         -0.62440       -1.70850        2.57770
H         -0.52480       -2.48470        0.99420
H          0.79810       -2.67220        2.15510
