16
gdb 16682	4.32401	1.73802	1.62722	4.5408	64.16	-0.2599	0.0154	0.2753	842.7862	0.13209	-383.758402	-383.751873	-383.750929	-383.788896	25.666
C         -0.17420        1.53730        0.00410
C          0.01920        0.02850        0.02980
C          1.15870       -0.60900       -0.81230
C          2.15580       -0.22860        0.30200
C          0.90950       -0.58450        1.18610
C          0.77360       -2.05250        0.80930
O          0.56270       -3.03960        1.44530
O          0.95020       -2.03260       -0.55830
H          0.75080        2.09710        0.16200
H         -0.59270        1.84960       -0.95880
H         -0.88140        1.83920        0.78310
H         -0.94400       -0.47140       -0.11260
H          1.31480       -0.45050       -1.87740
H          3.04680       -0.85200        0.39950
H          2.42150        0.82700        0.33040
H          0.80740       -0.33320        2.23850
