20
gdb 16894	3.96168	1.71451	1.33732	0.3252	80.28	-0.2275	0.0233	0.2508	980.7213	0.179169	-311.875446	-311.868065	-311.867121	-311.906761	29.626
C          0.09500        1.58150        0.00290
C         -0.01320        0.05150        0.01160
C          0.59640       -0.55890       -1.26880
C          0.70440       -2.08240       -1.21830
C          2.04260       -2.73510       -0.95980
C          0.98280       -2.71360        0.12490
C          1.09470       -1.79790        1.28720
C          0.63330       -0.54710        1.24380
H          1.14400        1.89930       -0.00600
H         -0.39130        2.00660       -0.88150
H         -0.37820        2.01820        0.88880
H         -1.08410       -0.20560        0.03380
H          0.00240       -0.25580       -2.13840
H          1.59170       -0.11910       -1.41030
H          0.02770       -2.62200       -1.87330
H          2.26160       -3.68320       -1.43990
H          2.90050       -2.08200       -0.83520
H          0.51120       -3.67100        0.33350
H          1.55360       -2.18440        2.19470
H          0.71270        0.09180        2.12100
