11
gdb 9119	4.20527	0.93953	0.77165	6.035	65.23	-0.2975	-0.109	0.1885	1339.4654	0.069597	-397.367508	-397.359016	-397.358072	-397.402072	27.312
O         -0.05610        1.47840        0.01090
C         -0.01900        0.06500        0.00230
C         -1.37510       -0.46250        0.01250
C         -2.48650       -0.93320        0.02070
C         -3.80360       -1.49600        0.03040
O         -4.05310       -2.67980        0.02620
C         -4.88780       -0.49580        0.04610
N         -5.74800        0.27670        0.05850
H          0.85310        1.79520        0.00450
H          0.49290       -0.33310       -0.88970
H          0.51030       -0.34350        0.87920
