17
gdb 13602	4.57526	1.28089	1.14406	4.4249	67.45	-0.2334	0.0207	0.2541	1080.1869	0.141923	-401.019408	-401.010965	-401.010021	-401.05273	30.602
C         -0.05510        1.44890       -0.16250
N         -0.11330       -0.00010       -0.17210
C         -1.19320       -0.70010        0.26540
O         -2.19880       -0.14480        0.71550
C         -1.10220       -2.17810        0.14770
C         -1.75710       -3.00810        1.25720
C         -2.42960       -2.92480       -0.07030
O         -3.61080       -2.23900       -0.26410
H          0.76200        1.80980        0.47180
H          0.08290        1.84730       -1.17360
H         -1.00270        1.81010        0.23740
H          0.68090       -0.51420       -0.51490
H         -0.21180       -2.58180       -0.32410
H         -1.25760       -3.92520        1.54940
H         -2.19710       -2.43470        2.06590
H         -2.37190       -3.79320       -0.71960
H         -3.49270       -1.36610        0.15580
