14
gdb 8476	3.05699	2.05183	1.5403	3.8334	59.47	-0.2344	-0.0106	0.2237	825.7838	0.104709	-419.650666	-419.642917	-419.641973	-419.682505	28.679
O          0.04800        1.38580       -0.14210
C          0.00640        0.01740       -0.06770
C         -0.25460       -0.80460        1.14090
C         -1.20420       -0.98970       -0.06420
O         -2.55170       -0.74680        0.04830
C         -0.50920       -1.75400       -1.14730
O         -0.85190       -2.62080       -1.90120
C          0.73400       -0.81450       -1.11890
H         -0.49130        1.75840        0.56430
H          0.42380       -1.58650        1.47650
H         -0.76980       -0.28270        1.94500
H         -2.95920       -1.45980        0.55380
H          0.82170       -0.29340       -2.07660
H          1.69950       -1.24450       -0.83810
