18
gdb 9821	3.76634	1.44708	1.15443	3.3881	69.01	-0.2642	-0.0232	0.241	1056.9621	0.151973	-384.949987	-384.941359	-384.940415	-384.983321	31.865
C          0.12700        1.52040       -0.21690
C          0.02140        0.01180       -0.09920
C          1.31090       -0.80790       -0.06140
C          0.51200       -0.65470        1.18570
C         -1.12700       -0.68310       -0.74960
O         -1.27570       -1.89220       -0.69590
C         -2.16470        0.13160       -1.51520
O         -3.15490       -0.69300       -2.04750
H          1.01670        1.87760        0.30900
H          0.21320        1.84530       -1.25930
H         -0.73730        2.02760        0.22480
H          1.28130       -1.76920       -0.56020
H          2.23680       -0.25290       -0.16410
H          0.87400        0.00860        1.96350
H         -0.05490       -1.51300        1.52590
H         -2.59350        0.88320       -0.83130
H         -1.64820        0.70060       -2.30640
H         -2.89960       -1.59020       -1.77400
