16
gdb 4339	4.04059	1.78426	1.25687	2.4264	73.66	-0.2443	-0.0311	0.2132	961.1423	0.131409	-342.858741	-342.85097	-342.850026	-342.891926	27.371
C         -0.07380        1.51410        0.03950
C         -0.03660        0.01210       -0.01760
C          0.05330       -0.68580       -1.22060
C          0.08170       -2.07850       -1.17580
C          0.17730       -2.92080       -2.41750
N          0.02400       -2.72950       -0.00460
C         -0.06040       -1.97010        1.08600
N         -0.09430       -0.64060        1.15270
H         -0.02280        1.96080       -0.95600
H         -0.99220        1.84880        0.53210
H          0.76170        1.88810        0.63960
H          0.10000       -0.15870       -2.16720
H          1.07000       -3.55280       -2.37510
H         -0.68400       -3.59320       -2.48270
H          0.21880       -2.30960       -3.32190
H         -0.10720       -2.49910        2.03600
