17
gdb 10908	3.33399	1.98025	1.45246	3.4597	69.76	-0.2304	0.0164	0.2468	906.1174	0.141456	-363.861611	-363.853504	-363.85256	-363.893882	29.505
C         -0.12930        1.35210       -0.26720
N         -0.04760        0.01290        0.27770
C         -1.04960       -1.05220        0.19080
C         -0.89660       -1.82280       -1.08890
C          0.05830       -2.08350        0.08190
C          0.25840       -3.41470        0.74180
C          1.01270       -0.88580        0.11780
O          2.19720       -0.70970        0.02180
H          0.88620        1.75270       -0.31770
H         -0.56430        1.36450       -1.27650
H         -0.72910        2.00120        0.37840
H         -1.91970       -1.05980        0.83480
H         -1.61310       -2.62040       -1.26960
H         -0.55080       -1.31860       -1.98710
H         -0.65580       -4.01570        0.70740
H          1.04890       -3.98070        0.23800
H          0.54960       -3.29830        1.79070
