18
gdb 20123	4.12044	1.33801	1.13542	2.3554	67.68	-0.2651	0.0858	0.3509	1075.2709	0.152424	-384.892125	-384.883814	-384.882869	-384.925425	29.948
C         -0.10920        1.71400       -0.10780
C         -0.11100        0.18930        0.05940
C          0.38480       -0.56450       -1.16560
C          0.32480       -0.05850       -2.54160
O          1.55690       -0.05770       -1.81580
C          0.73930       -0.21980        1.24900
C          0.16750       -0.43360        2.58260
O          0.53080       -1.54130        1.75490
H          0.87120        2.06200       -0.44490
H         -0.85560        2.03690       -0.83840
H         -0.34220        2.20410        0.84190
H         -1.13230       -0.16140        0.25990
H          0.39620       -1.64690       -1.03100
H          0.27120       -0.76550       -3.36850
H         -0.09240        0.92450       -2.74950
H          1.79020        0.06700        1.18090
H          0.78240       -0.29130        3.47000
H         -0.90300       -0.29590        2.73400
