18
gdb 19553	3.96755	1.82566	1.67314	1.0678	71.46	-0.2278	0.0927	0.3205	863.3483	0.154488	-347.736535	-347.729458	-347.728514	-347.767756	27.551
C          0.10240        1.33780        0.26200
O         -0.00580       -0.00360       -0.19240
C         -1.26750       -0.50820       -0.10790
C         -2.16710       -0.88810        1.04550
C         -3.35330       -0.13460        0.45080
C         -2.63100       -0.25090       -0.91990
C         -2.64960       -1.77560       -1.22440
C         -1.71570       -1.93100       -0.02700
H          1.15190        1.62310        0.16380
H         -0.51230        2.01710       -0.34450
H         -0.20430        1.42640        1.31260
H         -1.90520       -1.03940        2.08470
H         -4.34970       -0.58650        0.51890
H         -3.39500        0.89780        0.80970
H         -2.80250        0.47850       -1.70840
H         -3.62620       -2.27300       -1.20340
H         -2.13560       -2.01180       -2.16010
H         -1.12630       -2.78790        0.27200
