14
gdb 4400	3.69947	1.96797	1.28636	5.4369	69.66	-0.1962	-0.0199	0.1763	883.6522	0.110093	-378.797737	-378.791025	-378.790081	-378.828331	26.328
N          0.04460        1.40000        0.16020
C         -0.04740        0.02260        0.04990
C         -1.22810       -0.68010        0.02540
C         -1.16130       -2.09350       -0.01170
C          0.02190       -2.77640       -0.03810
C          1.28260       -2.07650       -0.01660
O          2.40980       -2.54410       -0.02620
N          1.12880       -0.66360        0.02760
H          0.82260        1.82710       -0.32350
H         -0.82070        1.88530       -0.02550
H         -2.17370       -0.15510        0.03010
H         -2.09430       -2.64980       -0.02780
H          0.06710       -3.85690       -0.06910
H          2.00720       -0.16730        0.09860
