14
gdb 2705	7.22258	1.14613	1.03647	3.8926	55.33	-0.2773	0.0018	0.2792	1065.4642	0.112302	-361.702346	-361.694481	-361.693536	-361.735305	26.286
O         -0.00970        1.41920       -0.05190
C          0.00650        0.00850       -0.01290
C         -1.39960       -0.56840        0.02060
O         -2.03560       -0.15660       -1.18450
C         -3.39600       -0.50420       -1.23500
C         -3.97200       -0.01450       -2.49110
N         -4.45020        0.36170       -3.47210
H         -0.54900        1.66470       -0.81250
H          0.54700       -0.41800       -0.87220
H          0.53890       -0.28360        0.89790
H         -1.37500       -1.66760        0.08980
H         -1.94840       -0.17410        0.88970
H         -3.53710       -1.59610       -1.18560
H         -3.95820       -0.06550       -0.39470
