14
gdb 19836	3.46219	2.73896	1.8449	3.2018	61.32	-0.2598	-0.0206	0.2392	709.3054	0.108624	-382.501618	-382.49587	-382.494925	-382.531265	23.018
O         -0.03550        1.43770        0.05570
C          1.26370        0.81790       -0.01060
C          2.12400        0.85650        1.19180
C          1.80490        0.22140        2.32670
C          0.56540       -0.57200        2.47310
O         -0.69960        0.11590        2.41770
C         -0.34650       -0.69160        1.30870
C          0.01210        0.02210        0.03330
H          1.76030        0.96510       -0.96830
H          3.06080        1.40050        1.11660
H          2.48210        0.24840        3.17520
H          0.58550       -1.37330        3.21010
H         -0.93130       -1.60350        1.19140
H         -0.34760       -0.44160       -0.88490
