18
gdb 8290	6.69844	0.88086	0.83184	3.1034	69.36	-0.2454	-0.0207	0.2247	1341.1298	0.152215	-384.935004	-384.926417	-384.925473	-384.969144	30.68
O         -0.20690        1.47560       -0.03900
C         -0.01480        0.08240       -0.00010
C          0.33050       -0.59710        1.35570
C         -0.69470       -1.70950        0.99770
C         -1.56420       -2.28390        2.11990
C         -2.61470       -3.23440        1.59170
O         -2.72530       -4.38970        1.91420
C         -1.32420       -0.72890       -0.03630
H          0.65540        1.90320       -0.04900
H          0.67550       -0.24810       -0.78950
H          1.36490       -0.89030        1.55120
H         -0.03390        0.02430        2.18010
H         -0.18890       -2.53000        0.47710
H         -0.95770       -2.81470        2.86050
H         -2.08150       -1.45630        2.62690
H         -3.30710       -2.78460        0.84190
H         -2.12670       -0.13670        0.41560
H         -1.66480       -1.12020       -0.99710
