18
gdb 11548	5.99671	0.9801	0.93061	1.5127	68.77	-0.2655	0.0191	0.2846	1293.7007	0.152526	-384.96239	-384.953498	-384.952554	-384.997337	30.837
C          0.21470        1.28630        0.23410
O          0.12130       -0.11930       -0.02780
C          0.64590       -0.52260       -1.20460
O          1.17610        0.22430       -1.98760
C          0.44100       -2.01340       -1.40190
C          1.35700       -2.59520       -2.45290
C          2.69830       -3.15940       -2.06210
C          1.58950       -4.08230       -2.50820
H          1.25970        1.60540        0.26090
H         -0.30530        1.85930       -0.53800
H         -0.25600        1.43980        1.20530
H          0.56250       -2.51790       -0.43790
H         -0.61310       -2.15350       -1.68090
H          1.32140       -2.07050       -3.40150
H          3.53790       -2.99810       -2.72850
H          2.96290       -3.16010       -1.00940
H          1.11270       -4.70130       -1.75470
H          1.66960       -4.55460       -3.48090
