16
gdb 13118	4.14597	1.28113	1.04926	3.3893	61.74	-0.2536	-0.002	0.2516	1118.8784	0.129403	-420.889412	-420.88124	-420.880296	-420.92293	28.256
C         -0.00730        1.47150       -0.02210
C         -0.05010       -0.03560       -0.19300
O         -1.32320       -0.49750        0.26300
C         -1.47670       -1.87700        0.17660
C         -2.87490       -2.38880        0.55390
O         -3.03320       -2.97760       -0.77880
C         -1.83300       -2.46960       -1.21030
O         -1.36640       -2.51930       -2.30220
H          0.95930        1.86020       -0.35520
H         -0.79440        1.94750       -0.61330
H         -0.15010        1.74550        1.02690
H          0.09410       -0.31970       -1.24350
H          0.74550       -0.52100        0.39540
H         -0.64800       -2.41890        0.65770
H         -2.93560       -3.15430        1.32850
H         -3.60230       -1.59250        0.71910
