15
gdb 9058	5.09027	0.90255	0.79988	2.7374	67.91	-0.2723	0.0054	0.2777	1343.0857	0.116552	-362.636303	-362.627401	-362.626457	-362.670297	31.253
O         -0.08120        1.42680        0.02410
C          0.02120        0.01400        0.01150
C          0.69600       -0.53240       -1.25850
C         -0.06270       -0.10060       -2.52820
C          0.58780       -0.56390       -3.74630
C          1.14650       -0.95660       -4.73500
C          0.71680       -0.47960        1.21810
N          1.29040       -0.84680        2.15150
H          0.80860        1.79510        0.08080
H         -1.01380       -0.34550        0.05400
H          1.73030       -0.17270       -1.30030
H          0.74400       -1.62430       -1.19890
H         -1.08960       -0.48770       -2.48820
H         -0.14990        0.99140       -2.53820
H          1.62890       -1.29820       -5.61720
