16
gdb 19712	3.59655	2.57318	2.49006	1.5607	65.97	-0.234	0.0085	0.2424	670.5386	0.133619	-346.567746	-346.562385	-346.561441	-346.596739	23.407
C         -0.02670        1.54180        0.09790
C          1.29250        0.82140       -0.01710
C          0.00200        0.03830       -0.00850
C          0.06390       -0.67330       -1.40310
O          1.47470       -0.95030       -1.50040
C          1.88150        0.42960       -1.41530
C          1.03160        1.05430       -2.51930
C         -0.10850        0.36250       -2.51170
H         -0.26860        1.95130        1.07470
H         -0.38980        2.13100       -0.73560
H          1.97320        0.80130        0.82500
H         -0.28630       -0.56960        0.84010
H         -0.51490       -1.59270       -1.47350
H          2.96350        0.51790       -1.49680
H          1.28800        1.93560       -3.09080
H         -1.01420        0.53870       -3.07550
