20
gdb 9283	6.25282	0.80634	0.75466	4.1233	73.27	-0.2765	0.0097	0.2862	1517.5597	0.17468	-386.173431	-386.163535	-386.162591	-386.209345	33.998
C          0.00540        1.54850       -0.07590
C         -0.02450        0.02020        0.02340
C         -1.43960       -0.58520        0.08120
C         -2.24310       -0.35570       -1.20460
C         -1.33130       -2.07640        0.40640
O         -2.63150       -2.63620        0.63860
C         -2.98230       -3.75140       -0.02560
O         -4.03430       -4.29480        0.12960
H          1.03490        1.91830       -0.05230
H         -0.45040        1.90770       -1.00310
H         -0.53250        2.00850        0.76030
H          0.51730       -0.41270       -0.82920
H          0.52800       -0.28590        0.92150
H         -1.97860       -0.11670        0.91620
H         -1.72500       -0.78370       -2.07200
H         -3.23090       -0.81890       -1.13620
H         -2.39190        0.70940       -1.39900
H         -0.83530       -2.61640       -0.41270
H         -0.74410       -2.22980        1.31850
H         -2.19530       -4.09990       -0.72380
