18
gdb 10911	3.24143	1.91166	1.5236	2.267	67.02	-0.2512	0.0641	0.3153	892.2542	0.153189	-384.911701	-384.903592	-384.902647	-384.943657	31.13
C         -0.07500        1.48060       -0.00650
C          0.08100       -0.01450       -0.02900
C         -0.80570       -0.94500        0.76800
C          0.66950       -0.97280        1.02810
C          1.35610       -1.79680       -0.06610
O          0.93310       -3.12760       -0.22770
C          0.77900       -0.80100       -1.13570
O         -0.00190       -1.40270       -2.15760
H          0.87150        1.98340       -0.23470
H         -0.81460        1.81710       -0.74300
H         -0.40930        1.82750        0.97660
H         -1.41060       -0.44980        1.52040
H         -1.27840       -1.82060        0.33030
H          1.09530       -0.72450        1.99270
H          2.44980       -1.74750       -0.00050
H          0.57910       -3.17180       -1.12800
H          1.56490       -0.22550       -1.63250
H         -0.91730       -1.41520       -1.85770
