17
gdb 4961	3.18924	2.24616	1.33972	2.0205	77.75	-0.2414	-0.0122	0.2292	917.1329	0.143633	-326.801926	-326.794486	-326.793542	-326.833394	28.087
C          0.01210        1.52640       -0.02430
C          0.00960        0.01960       -0.01640
C         -0.00960       -0.70700       -1.20380
C         -0.01140       -2.09760       -1.16930
C          0.00630       -2.71690        0.07290
N          0.02500       -2.04610        1.22760
C          0.02670       -0.70860        1.19070
C          0.04800       -0.00470        2.52350
H          0.89980        1.93310        0.47430
H         -0.00360        1.91340       -1.04650
H         -0.85780        1.93610        0.50240
H         -0.02310       -0.18100       -2.15440
H         -0.02620       -2.68430       -2.08110
H          0.00570       -3.80180        0.15090
H          0.92970        0.63940        2.62540
H         -0.82910        0.64090        2.65270
H          0.05980       -0.74610        3.32290
