20
gdb 14147	4.05555	1.53871	1.34159	1.3289	75.23	-0.2239	0.0888	0.3126	1009.884	0.177716	-349.002372	-348.994363	-348.993419	-349.035273	30.443
C          0.00460        1.52590       -0.24330
C          0.00650        0.03550        0.00960
C          1.29510       -0.77370       -0.05020
C          0.57260       -0.56290        1.25820
C          1.18820        0.21350        2.42960
C          0.79360       -0.63530        3.66100
C          0.45840       -1.99090        3.02730
O         -0.14550       -1.66170        1.78470
H          0.90890        2.00260        0.14930
H         -0.03750        1.73980       -1.31700
H         -0.85760        2.01250        0.22690
H         -0.87030       -0.49020       -0.36000
H          1.24990       -1.76390       -0.48990
H          2.22560       -0.23720       -0.21670
H          2.27490        0.28010        2.32490
H          0.80350        1.23430        2.50100
H          1.58540       -0.69670        4.41170
H         -0.09820       -0.22250        4.14160
H          1.37170       -2.58880        2.87290
H         -0.25510       -2.58900        3.59980
