17
gdb 20850	3.10786	1.84924	1.27549	0.6089	69.74	-0.2461	0.0057	0.2518	979.6549	0.143405	-360.067361	-360.059125	-360.05818	-360.100893	29.043
C         -0.04510        1.58820       -0.01040
C          0.06750        0.05350       -0.01420
C          0.71940       -0.49130        1.21880
N          2.03150       -0.73460        1.27660
N          2.20910       -1.17080        2.51630
N          1.12680       -1.24270        3.28040
C          0.15230       -0.80970        2.47660
C         -1.26790       -0.72520        2.93360
H          0.94570        2.04700        0.05610
H         -0.52750        1.94470       -0.92580
H         -0.63500        1.94220        0.84130
H         -0.93220       -0.38480       -0.11770
H          0.64720       -0.26840       -0.88480
H          3.11440       -1.45220        2.85420
H         -1.62340        0.31070        2.96070
H         -1.93620       -1.27910        2.26530
H         -1.36190       -1.14370        3.93760
