18
gdb 17706	5.84792	1.44082	1.40181	1.6441	71.73	-0.2513	0.0724	0.3237	945.4759	0.153994	-347.726747	-347.719674	-347.71873	-347.757589	28.188
C         -0.16750        1.58980       -0.00330
C         -0.03050        0.07540        0.00270
C          1.20260       -0.58830       -0.65350
C          2.13230       -0.28840        0.57630
C          2.58300       -1.76110        0.64340
O          3.04410       -2.30770        1.85290
C          1.09270       -1.85450        0.26390
C          0.70820       -0.62360        1.16610
H          0.77200        2.08420        0.26460
H         -0.46520        1.95350       -0.99320
H         -0.93230        1.91760        0.70980
H         -0.98270       -0.40120       -0.26470
H          1.51370       -0.58800       -1.69980
H          2.71490        0.61680        0.74990
H          3.29610       -2.08160       -0.12280
H          2.43690       -2.04580        2.55360
H          0.46960       -2.73040        0.07490
H          0.42850       -0.65010        2.22220
