4
gdb 6	285.48839	38.9823	34.29892	2.1089	14.18	-0.267	-0.0406	0.2263	59.9891	0.026603	-114.483613	-114.480746	-114.479802	-114.505268	6.413
C         -0.01400        1.18020        0.00780
O          0.00230       -0.01970        0.00220
H          0.91500        1.78950        0.00400
H         -0.95910        1.76400        0.01720
