15
gdb 21233	3.27227	1.98719	1.25586	2.4468	64.69	-0.2196	0.0105	0.2301	940.1787	0.118213	-399.791371	-399.783364	-399.78242	-399.824561	27.515
C          0.05160        1.42130       -0.02780
O          0.03580       -0.01010       -0.00150
C          0.59260       -0.64380       -1.02920
C          0.71260       -1.98760       -1.25360
C          0.24350       -3.11700       -0.39180
C          1.38950       -2.00610       -2.50110
N          1.65340       -0.81560       -2.98480
O          1.13130        0.07590       -2.02030
H          1.07770        1.80000       -0.04860
H         -0.48960        1.80180       -0.89890
H         -0.44570        1.73560        0.88960
H         -0.47790       -3.75570       -0.91350
H          1.07310       -3.75680       -0.07060
H         -0.24440       -2.73070        0.50660
H          1.69950       -2.87040       -3.07450
