17
gdb 7279	4.0184	1.14009	0.94732	4.5157	65.18	-0.2717	0.0312	0.3028	1197.9405	0.139732	-401.011905	-401.002488	-401.001544	-401.046174	33.403
C          0.02020        1.55310        0.04010
C         -0.00850        0.02840        0.03360
O          0.69770       -0.52580        1.13940
C         -1.45090       -0.52040       -0.02280
O         -2.15830       -0.02170       -1.14200
C         -1.44600       -2.06310        0.02170
C         -2.78800       -2.63200        0.08940
N         -3.84980       -3.08300        0.15150
H          1.05170        1.91420        0.02610
H         -0.51520        1.95400       -0.82290
H         -0.47040        1.94120        0.94230
H          0.52580       -0.34250       -0.85360
H          0.43730       -0.03990        1.93000
H         -2.00150       -0.14720        0.84990
H         -1.75900       -0.38130       -1.94280
H         -0.93850       -2.45390       -0.87060
H         -0.85910       -2.39190        0.88380
