14
gdb 18660	3.37874	2.41273	1.56744	2.2501	62.68	-0.2342	-0.0362	0.198	778.1274	0.10857	-378.711933	-378.70547	-378.704526	-378.743081	24.128
O          0.04750        0.02920        0.38720
C         -0.01330        1.18430        0.03480
C         -1.33480        1.84200       -0.34790
N         -1.29460        3.14200       -1.00220
C         -0.19240        3.74870       -1.13620
N          1.12200        3.32340       -0.79400
C          1.39750        3.28970        0.64780
C          1.21730        2.01720       -0.11970
H         -1.87800        1.13340       -0.98470
H         -1.94990        1.93450        0.55770
H         -0.19300        4.73880       -1.59260
H          2.40120        3.57730        0.94430
H          0.60210        3.60360        1.31870
H          2.10920        1.44520       -0.35930
