16
gdb 12627	3.26445	1.98365	1.35226	2.4846	65.74	-0.2516	-0.0285	0.223	906.7439	0.129643	-383.766267	-383.758453	-383.757508	-383.798491	28.884
C         -0.27310        1.57320       -0.03740
C          0.06720        0.07930       -0.02320
C          0.79970       -0.45400       -1.23730
C          1.85250       -1.21540       -0.92980
C          1.99650       -1.40290        0.55830
O          3.30530       -1.25560        1.05480
C          1.05500       -0.30570        1.08490
O          1.19750        0.22660        2.15630
H          0.61950        2.17330       -0.23750
H         -1.01580        1.79550       -0.80900
H         -0.67520        1.87880        0.93170
H         -0.86060       -0.49050        0.14630
H          0.47460       -0.22000       -2.24530
H          2.51920       -1.69490       -1.63610
H          1.58280       -2.38560        0.85740
H          3.21570       -0.78730        1.89700
