18
gdb 19061	5.18556	1.64832	1.63618	1.6273	70.97	-0.2488	0.0903	0.339	871.935	0.155632	-347.759105	-347.752686	-347.751742	-347.78926	26.477
C         -0.04730        1.47410        0.00290
C          0.01010       -0.03780        0.02130
C          1.33170       -0.71480       -0.25150
C          0.74270       -0.72000        1.15150
C          0.53780       -2.24560        1.29200
C          1.89580       -2.81920        0.80260
C          1.29260       -2.23890       -0.50590
O         -0.02230       -2.62670       -0.00190
H          0.87590        1.91690        0.39190
H         -0.19210        1.85000       -1.01590
H         -0.87670        1.84390        0.61560
H         -0.87500       -0.54100       -0.35210
H          2.20910       -0.14070       -0.52560
H          1.16000       -0.15000        1.97340
H         -0.01320       -2.63790        2.14670
H          2.82240       -2.38980        1.19320
H          1.91480       -3.91060        0.80650
H          1.51780       -2.62430       -1.50020
