17
gdb 13242	4.30865	1.29902	1.05215	3.1552	68.62	-0.2759	0.0126	0.2885	1101.9704	0.142171	-363.852255	-363.844254	-363.843309	-363.885606	28.625
N          0.15640       -0.19330        1.32750
C         -0.02630        0.60650        0.51400
C         -0.26680        1.62760       -0.52800
O          0.89630        2.27140       -0.97120
C          1.46470        3.18330       -0.04790
C          2.42840        2.66340        1.05440
C          3.33720        3.88510        0.74340
C          2.61690        4.02230       -0.62750
H         -0.71020        1.13110       -1.39680
H         -1.00680        2.34360       -0.13650
H          0.67210        3.81620        0.37900
H          2.04050        2.54200        2.06710
H          2.89070        1.72620        0.73420
H          3.12710        4.73120        1.40290
H          4.41500        3.71660        0.72730
H          3.12880        3.45220       -1.40760
H          2.38440        5.01960       -1.00640
