15
gdb 10809	4.95365	1.55807	1.22015	1.911	62.96	-0.2353	-0.0321	0.2033	952.1371	0.118127	-399.832735	-399.825007	-399.824062	-399.865927	27.2
C         -0.20220        1.52230        0.04730
C         -0.03480        0.03780       -0.08080
N         -0.09620       -0.55560       -1.19790
C          0.18750       -1.97700       -1.27510
C          0.23270       -2.74520        0.03380
O          0.41870       -3.93520        0.10200
C         -0.03440       -1.92100        1.28400
O          0.20870       -0.52330        1.14220
H          0.67660        1.95560        0.53540
H         -0.33100        1.96420       -0.93960
H         -1.06740        1.75610        0.67590
H         -0.54820       -2.46590       -1.92670
H          1.15380       -2.12480       -1.77760
H         -1.08650       -2.08020        1.56540
H          0.59070       -2.28200        2.10330
