22
gdb 12103	3.92267	1.21348	1.13569	0.1859	81.82	-0.2611	0.0862	0.3473	1183.8962	0.200039	-313.048745	-313.039984	-313.03904	-313.082227	33.654
C          0.21420        1.57450        0.13120
C         -0.02810        0.07830        0.05230
C         -1.47120       -0.36400        0.26930
C         -2.46770        0.18430       -0.73500
C         -2.69960       -0.50760       -2.05490
C         -3.76690       -0.53780       -0.98770
C          0.82600       -0.72050       -0.90330
C          1.05620       -0.82740        0.58690
H          1.27890        1.80670        0.02970
H         -0.31560        2.11320       -0.66210
H         -0.12360        1.97970        1.09300
H         -1.51570       -1.46060        0.24750
H         -1.78330       -0.06750        1.28150
H         -2.53260        1.26870       -0.76010
H         -2.86870        0.09860       -2.93810
H         -2.15540       -1.42590       -2.24890
H         -3.93430       -1.47510       -0.46630
H         -4.66610        0.04940       -1.13880
H          0.37840       -1.56820       -1.41080
H          1.56390       -0.19220       -1.49840
H          1.94880       -0.36980        1.00090
H          0.76060       -1.74620        1.08360
