18
gdb 9559	2.87206	1.65332	1.49903	1.5943	63.69	-0.2482	0.0611	0.3093	942.2113	0.152297	-422.056064	-422.047304	-422.046359	-422.088876	32.821
O         -0.09530        1.43310       -0.04790
C          0.01450        0.01170        0.05520
C         -1.41460       -0.52090        0.01610
O         -2.17220        0.08770        1.03310
C         -2.02630       -0.54630       -1.42250
C         -1.62700       -2.04370       -1.52580
C         -1.48950       -2.06160        0.02230
O         -0.38620       -2.70500        0.61920
H          0.73680        1.82310        0.23260
H          0.61500       -0.40180       -0.76570
H          0.47790       -0.28450        1.00390
H         -1.88930        1.01190        1.05160
H         -3.10790       -0.40530       -1.37090
H         -1.60560        0.14670       -2.15300
H         -2.34420       -2.73270       -1.97660
H         -0.65220       -2.18340       -2.00080
H         -2.43540       -2.35560        0.49670
H         -0.55580       -3.65150        0.63650
