16
gdb 4194	4.53514	1.58602	1.30265	1.7299	68.5	-0.2305	0.0103	0.2408	929.1474	0.132158	-379.867929	-379.860969	-379.860025	-379.899011	27.096
O         -0.09210        1.31560       -0.03590
N          0.02270       -0.08690       -0.03530
C         -1.11820       -0.64590        0.04400
C         -2.49400       -0.02170        0.16590
C         -3.35840       -1.10800        0.86070
C         -2.62610       -2.41800        0.60590
N         -2.30340       -2.62280       -0.81540
C         -1.25010       -2.12110        0.11900
H          0.82970        1.59280       -0.06080
H         -2.45370        0.92000        0.71590
H         -2.87460        0.20360       -0.83530
H         -3.40240       -0.92910        1.94060
H         -4.38520       -1.12750        0.48440
H         -2.82790       -3.28150        1.23170
H         -2.12980       -3.61210       -0.97930
H         -0.38530       -2.73630        0.33390
