18
gdb 5952	4.46361	1.08337	1.0764	4.3643	64.53	-0.2423	-0.0169	0.2254	1147.4062	0.149943	-422.082684	-422.072992	-422.072048	-422.117255	34.43
C          0.02600        1.52560       -0.07740
C         -0.01710       -0.00800        0.02360
O          0.56650       -0.44250        1.25020
C         -1.46790       -0.51160       -0.02080
O         -2.10540       -0.01390        1.15220
C          0.79640       -0.67270       -1.10020
C          2.25970       -0.27890       -1.08670
O          2.87090        0.08770       -2.05870
H          1.04980        1.88520        0.05520
H         -0.33650        1.86920       -1.05190
H         -0.60180        1.97090        0.69820
H         -0.08760       -0.24720        1.93350
H         -1.97280       -0.15710       -0.93130
H         -1.46380       -1.61040       -0.02740
H         -2.93490       -0.48220        1.27770
H          0.75600       -1.76020       -0.94820
H          0.38160       -0.44090       -2.08510
H          2.74930       -0.36920       -0.09480
