18
gdb 18966	6.06544	1.33797	1.3274	1.3111	72.32	-0.2612	0.0766	0.3378	981.054	0.154571	-347.716972	-347.709981	-347.709037	-347.748285	27.246
O         -0.06500        1.47370       -0.32990
C          0.04910        0.11630        0.08180
C         -1.33730       -0.49160        0.04830
C         -1.97370       -0.85430       -1.31100
C         -1.16310       -2.19480       -1.44020
C         -2.43560       -3.02480       -1.69860
C         -2.86760       -1.96900       -0.66440
C         -1.49210       -2.02770        0.08730
H          0.80910        1.87300       -0.29430
H          0.72730       -0.44370       -0.58150
H          0.45930        0.04480        1.10300
H         -2.00130        0.05760        0.72720
H         -2.26150       -0.19540       -2.13110
H         -0.17310       -2.31530       -1.88170
H         -2.87990       -2.94790       -2.69650
H         -2.42110       -4.06760       -1.36440
H         -3.84080       -1.81270       -0.19580
H         -1.22710       -2.72900        0.88160
