10
gdb 21776	3.40533	2.49348	1.43946	2.5137	52.69	-0.2785	-0.0712	0.2073	748.997	0.06201	-446.771472	-446.765389	-446.764445	-446.801977	21.957
O         -0.05720       -0.05050        0.00490
C          0.01020        1.15040        0.00880
N         -1.11470        1.96880        0.02790
N         -1.19680        3.33170        0.03590
N         -0.13540        3.99480        0.02510
N          1.05340        3.32340        0.00680
C          1.29540        1.95330       -0.00230
O          2.40410        1.48730       -0.02030
H         -2.01830        1.51210        0.03760
H          1.86000        3.93520       -0.00100
