16
gdb 19372	4.23743	1.63597	1.45981	1.7528	63.54	-0.2345	0.0572	0.2917	883.0841	0.129824	-383.649568	-383.642488	-383.641544	-383.680888	27.418
O          0.15130        1.37100        0.11980
C          0.05220       -0.03470       -0.07290
C         -1.36430       -0.51710       -0.06120
C         -2.11510       -0.95720        1.17380
C         -1.91120       -1.93690        0.04730
C         -2.86400       -1.62800       -1.15170
O         -3.70340       -0.51340       -0.81960
C         -2.35740       -0.26460       -1.24750
H         -0.32470        1.58210        0.93020
H          0.51910       -0.22420       -1.04670
H          0.63460       -0.59130        0.67940
H         -1.48960       -1.13750        2.04340
H         -3.10450       -0.57130        1.38350
H         -1.35590       -2.85950        0.15380
H         -3.22340       -2.32340       -1.90010
H         -2.20560        0.40390       -2.08620
