16
gdb 11773	4.58995	1.70811	1.55437	4.6976	68.77	-0.2631	0.014	0.2772	845.5057	0.133989	-342.777164	-342.770806	-342.769862	-342.807503	25.298
N          0.04420       -1.13620       -0.03690
C         -0.00290        0.01840       -0.02350
C         -0.03480        1.46800        0.00900
C         -0.88230        2.26730        1.04230
C         -0.73480        3.33200       -0.07410
C          0.77310        3.67160       -0.02370
C          1.33030        2.21420        0.04710
N         -0.83420        2.18510       -1.03800
H         -1.89610        1.87890        1.11970
H         -0.43910        2.46200        2.01960
H         -1.44670        4.14720       -0.19690
H          1.10070        4.20530       -0.92000
H          1.04440        4.27470        0.84700
H          1.89530        2.00450        0.95840
H          1.95320        1.94390       -0.80890
H         -0.30790        2.33100       -1.90120
