17
gdb 11814	3.67941	1.66505	1.31664	4.0328	70.26	-0.2319	-0.0261	0.2058	965.7311	0.141584	-363.843889	-363.835964	-363.83502	-363.876418	29.139
C          0.25600        1.63520       -0.06460
C          0.04560        0.12720        0.00260
C          0.50990       -0.76430       -1.19940
C          1.30000       -1.64930       -0.21780
C          1.30590       -3.13770       -0.12060
N          2.53950       -2.40320       -0.40960
C          1.01950       -0.67060        0.90400
O          1.41030       -0.53610        2.02720
H          1.28340        1.87710       -0.35650
H         -0.42020        2.09780       -0.79040
H          0.07220        2.08910        0.91360
H         -0.98760       -0.10150        0.28980
H         -0.28170       -1.25720       -1.76720
H          1.15880       -0.21780       -1.89120
H          1.27240       -3.60450        0.85980
H          0.81180       -3.68840       -0.91760
H          2.75170       -2.44850       -1.40440
