13
gdb 88	6.57648	5.31603	3.98453	1.3822	45.85	-0.2494	0.0776	0.327	401.4888	0.113237	-232.33341	-232.327734	-232.32679	-232.36147	21.17
C         -0.03710        1.53220        0.01330
C          0.01340        0.02120        0.01920
O         -1.17480       -0.59740       -0.40930
C          1.30740       -0.69900       -0.27390
C          0.70840       -0.71370        1.12230
H          0.89030        1.96240        0.40280
H         -0.17850        1.91560       -1.00520
H         -0.87010        1.88960        0.62730
H         -1.28350       -0.40230       -1.34690
H          1.23970       -1.61640       -0.84780
H          2.20540       -0.11520       -0.44740
H          1.19540       -0.13890        1.90240
H          0.24740       -1.63670        1.45380
