17
gdb 9476	3.02543	1.74102	1.53297	3.8128	68.82	-0.2499	0.0249	0.2748	911.9977	0.142848	-360.028316	-360.019904	-360.01896	-360.060909	30.996
C         -0.41670        1.58580        0.05030
C          0.02810        0.12830        0.07190
N          1.28970       -0.16070       -0.65900
C          1.74560       -1.09660        0.39480
C          0.72440       -0.44490        1.37550
N          1.18850        0.58470        2.27830
C         -1.07700       -0.75210       -0.34470
N         -1.92210       -1.45980       -0.69670
H          0.39720        2.22590        0.39220
H         -0.69330        1.88000       -0.96660
H         -1.27990        1.73730        0.70380
H          1.17960       -0.54800       -1.59040
H          1.52550       -2.15410        0.19800
H          2.80450       -0.99320        0.65580
H          0.10360       -1.14450        1.93540
H          1.53340        0.16950        3.13690
H          1.95790        1.10580        1.86870
