20
gdb 6553	3.11903	1.5458	1.39685	2.6939	71.25	-0.2522	0.062	0.3142	1022.7942	0.173846	-386.126141	-386.116718	-386.115774	-386.159703	35.355
C         -1.89760        0.73110        1.60060
C         -0.83670        0.26830        0.63190
O          0.07230        1.25710        0.13310
C          0.61690        0.16590        0.87430
C          1.40530        0.45920        2.15500
C          1.90600       -0.87070        2.73950
C          2.57190        1.38840        1.80440
O          0.64970        1.16340        3.14050
H         -1.50920        1.50680        2.25850
H         -2.74920        1.13600        1.04370
H         -2.27110       -0.10760        2.20040
H         -1.21920       -0.39280       -0.15130
H          1.14860       -0.55140        0.24080
H          2.56190       -1.39880        2.04090
H          2.46340       -0.68100        3.66080
H          1.06610       -1.53650        2.97390
H          2.18170        2.33200        1.41700
H          3.16950        1.59140        2.69720
H          3.21630        0.93900        1.04320
H          0.03650        0.54160        3.54550
