17
gdb 4016	3.54326	1.08891	0.92122	2.4532	63.88	-0.2561	-0.008	0.248	1243.3929	0.140288	-438.079288	-438.069958	-438.069014	-438.113875	32.969
O          0.29500        1.23720       -0.11400
C          0.11980       -0.16000        0.03270
C         -1.36560       -0.56870       -0.01230
C         -1.54050       -2.06100       -0.03710
C         -1.19470       -2.84320       -1.29360
O         -0.13690       -3.76130       -1.08860
N         -1.94580       -2.61270        1.04280
O         -2.04150       -4.01840        0.89730
H         -0.08620        1.66620        0.65880
H          0.66610       -0.61970       -0.79690
H          0.57050       -0.53440        0.96360
H         -1.88600       -0.16000        0.86010
H         -1.81190       -0.12600       -0.91150
H         -2.10760       -3.34560       -1.65060
H         -0.86590       -2.15820       -2.07970
H         -0.44010       -4.35660       -0.39210
H         -2.34320       -4.29490        1.76860
