17
gdb 9874	3.48844	1.46911	1.27663	3.3326	68.27	-0.2691	0.0131	0.2822	1006.1896	0.140492	-363.850207	-363.841726	-363.840782	-363.884045	30.771
C          0.45850        1.48160       -0.26540
C         -0.17620        0.13910        0.01980
C          0.50730       -1.14090       -0.39530
C          0.40760       -0.75670        1.06790
O         -1.59320        0.14410        0.03700
C         -2.23160        0.39060       -1.19160
C         -2.17750       -0.74270       -2.13840
N         -2.15610       -1.62410       -2.88510
H          1.54200        1.41910       -0.13500
H          0.27850        1.82150       -1.29130
H          0.07320        2.24150        0.42240
H         -0.11600       -1.95730       -0.73650
H          1.46930       -1.06760       -0.89090
H          1.29910       -0.42270        1.58680
H         -0.29610       -1.31210        1.67670
H         -3.28290        0.58590       -0.95820
H         -1.83780        1.27980       -1.70160
