16
gdb 19229	3.17342	1.98616	1.56355	2.4673	67.84	-0.2547	0.0182	0.2729	852.0492	0.131243	-342.753627	-342.74628	-342.745335	-342.785168	27.466
C         -0.23530        1.58290        0.07770
C          0.03400        0.09220        0.03680
C          1.10020       -0.51520       -0.95510
C          1.88780        0.38350       -1.78540
N          2.50450        1.12560       -2.42320
C          1.77420       -1.08760        0.29900
C          2.10380       -0.02290        1.26040
N          0.71800       -0.52910        1.22890
H          0.67810        2.17960        0.13630
H         -0.77370        1.89420       -0.82300
H         -0.85780        1.81700        0.94690
H         -0.90780       -0.44510       -0.09630
H          0.65550       -1.28720       -1.58580
H          2.13820       -2.10560        0.37980
H          2.62780       -0.31580        2.16420
H          2.33560        0.97800        0.90830
