18
gdb 16504	3.58543	2.28018	1.93496	1.1941	70.5	-0.2426	0.084	0.3266	769.9832	0.156123	-347.758812	-347.752525	-347.751581	-347.788621	26.934
O         -0.09590        1.32820        0.11520
C          0.02670       -0.05780        0.00830
C         -0.37460       -0.76360       -1.26380
C         -1.19790       -0.93370        0.00470
C         -0.79480       -1.96810        1.07690
C          0.68980       -2.29020        0.75290
C          0.88070       -0.78360        1.07190
C         -0.21300       -1.00700        2.17530
H          0.67280        1.72680       -0.30710
H         -0.83280       -0.10980       -1.99960
H          0.20080       -1.57400       -1.69600
H         -2.19050       -0.50030        0.03860
H         -1.51080       -2.75590        1.31260
H          1.13950       -2.92030        1.52340
H          0.96120       -2.67760       -0.22990
H          1.86060       -0.35790        1.29410
H         -0.81420       -0.14090        2.46260
H          0.16060       -1.53170        3.05900
