20
gdb 13875	3.96799	1.42634	1.10634	1.3769	75.6	-0.2356	0.0298	0.2653	1096.2295	0.177253	-349.019552	-349.011155	-349.010211	-349.052378	31.868
C          0.06840        1.55090       -0.01250
C          0.03490        0.02170       -0.01750
O          0.79490       -0.50590        1.06980
C         -1.38640       -0.55050       -0.02680
C         -2.22670       -0.17420       -1.28140
C         -3.03260       -1.42200       -1.55330
C         -2.60380       -2.46060       -0.83920
C         -1.43360       -2.10310        0.04330
H          1.10250        1.90450        0.02180
H         -0.41210        1.96960       -0.90200
H         -0.45720        1.94570        0.86660
H          0.55860       -0.34390       -0.91120
H          0.39550       -0.18350        1.88560
H         -1.90960       -0.15590        0.85630
H         -2.84980        0.71220       -1.11680
H         -1.58150        0.06370       -2.14140
H         -3.83690       -1.44800       -2.28050
H         -3.00720       -3.46610       -0.89490
H         -0.50230       -2.54770       -0.33470
H         -1.54140       -2.46980        1.06970
