16
gdb 5393	5.13187	1.57201	1.21471	1.8443	76.52	-0.2002	-0.0078	0.1924	975.6387	0.13337	-342.848438	-342.841228	-342.840284	-342.879981	26.922
C          0.00910        1.43900        0.12820
N         -0.07210        0.01650       -0.10050
C          0.58190       -0.63610       -1.11350
N          0.58980       -1.97700       -1.01880
C          1.18510       -2.66720       -1.99000
C          1.80380       -2.09200       -3.09500
C          1.79800       -0.70060       -3.17990
C          1.18710        0.04750       -2.18650
H          1.04210        1.79610        0.25730
H         -0.44050        2.00190       -0.69900
H         -0.55130        1.68230        1.03300
H         -0.31540       -0.58280        0.67150
H          1.16770       -3.74930       -1.87440
H          2.27340       -2.70840       -3.85160
H          2.27030       -0.19750       -4.01810
H          1.17310        1.12900       -2.23510
