12
gdb 19221	3.25546	2.10665	1.49045	3.5716	60.09	-0.2727	-0.0531	0.2197	801.3284	0.083977	-377.494337	-377.487818	-377.486874	-377.525243	23.766
O         -0.07880        0.02060       -0.05450
C         -0.10140        1.20320        0.07120
C         -1.13070        2.27540       -0.05640
C         -0.93430        3.28510        1.02800
N         -0.04430        3.35920       -0.12400
C          1.01980        2.31020        0.11230
C          1.84680        2.47420        1.29190
N          2.47940        2.59320        2.25250
H         -2.00240        2.26310       -0.69940
H         -1.66360        4.08800        1.05930
H         -0.53930        2.98540        1.99500
H          1.64200        2.21280       -0.78220
