17
gdb 20041	5.46617	1.39256	1.23437	0.9552	70.23	-0.2324	0.0275	0.2599	1011.512	0.144035	-363.871627	-363.864228	-363.863283	-363.904548	26.613
C          0.12650        1.55540        0.03060
C          1.29650        0.63670       -0.11890
C         -0.09290        0.05390        0.06310
C         -0.43040       -0.58460        1.34730
N         -0.01340       -0.24440        2.49980
C         -0.62150       -1.17260        3.46070
C         -1.48520       -2.12580        2.59170
O         -1.28070       -1.64630        1.24520
H          0.01120        2.07160        0.97610
H         -0.23420        2.08950       -0.84120
H          1.75490        0.52780       -1.09530
H          1.96680        0.53610        0.72630
H         -0.56500       -0.40740       -0.79520
H          0.15710       -1.70660        4.01670
H         -1.21970       -0.62080        4.19430
H         -1.16540       -3.17090        2.63650
H         -2.55480       -2.07530        2.81570
