22
gdb 6796	5.96965	0.67573	0.63319	2.2754	76.35	-0.2471	0.0788	0.3259	1808.8003	0.197212	-387.335469	-387.324732	-387.323788	-387.372385	37.049
C          0.06060        1.48210        0.12830
C         -0.02100       -0.04150       -0.01360
C         -1.45750       -0.52210       -0.18980
O          0.69960       -0.51330       -1.14630
C          2.10490       -0.50350       -1.01940
C          2.69500       -1.20890       -2.23390
C          4.21710       -1.24320       -2.21110
O          4.65250       -1.91630       -3.38260
H          1.08870        1.82430        0.27680
H         -0.33630        1.96610       -0.77010
H         -0.52640        1.81680        0.98950
H          0.40380       -0.50520        0.89390
H         -1.89510       -0.08390       -1.09260
H         -1.48570       -1.61010       -0.29070
H         -2.07170       -0.23240        0.66800
H          2.49420        0.52590       -0.95610
H          2.40670       -1.01760       -0.08970
H          2.31140       -2.23340       -2.28100
H          2.36140       -0.69990       -3.14440
H          4.61480       -0.21540       -2.17210
H          4.56770       -1.76020       -1.30230
H          5.61370       -1.94060       -3.37490
