17
gdb 10912	3.2859	1.93601	1.53539	3.7074	63.75	-0.2326	0.0622	0.2948	872.1845	0.14188	-400.95342	-400.94544	-400.944496	-400.985599	30.25
C         -0.10050        1.49740        0.06660
C          0.15650        0.02710       -0.04250
N         -0.75640       -0.98300        0.56480
C          0.68910       -0.96290        0.93740
C          1.34810       -1.80070       -0.15900
O          0.93660       -3.13140       -0.27190
C          0.78150       -0.74230       -1.21690
O         -0.08320       -1.19460       -2.21590
H          0.79810        2.06830       -0.18940
H         -0.89800        1.80820       -0.61750
H         -0.39810        1.77700        1.08340
H         -1.27990       -0.52610        1.30940
H          0.98610       -0.82680        1.97080
H          2.43980       -1.79550       -0.12390
H         -0.01490       -3.13080       -0.10620
H          1.58920       -0.19250       -1.70710
H         -0.85330       -1.55550       -1.75860
