18
gdb 12246	3.30253	1.52421	1.16288	4.1357	68.03	-0.2676	0.0135	0.2812	1068.2517	0.153005	-384.981696	-384.973174	-384.97223	-385.014918	30.598
C          0.23410        1.56980        0.03780
C          0.08860        0.04450        0.03790
C          0.46580       -0.57020       -1.29540
O          1.90120       -0.38740       -1.59110
C          2.11370       -1.74010       -1.65820
O          3.14390       -2.30670       -1.83780
C          0.64550       -2.10650       -1.42350
C          0.33500       -3.04770       -0.26580
H          1.26370        1.85730       -0.19210
H         -0.41930        2.03050       -0.71110
H         -0.02780        1.98790        1.01380
H          0.71430       -0.38810        0.82620
H         -0.94760       -0.23900        0.26320
H         -0.11700       -0.12470       -2.10820
H          0.20100       -2.48900       -2.34780
H          0.78180       -2.70880        0.67230
H         -0.74460       -3.14450       -0.11620
H          0.73630       -4.04130       -0.48390
