16
gdb 4554	3.99727	1.7185	1.22023	3.7903	68.66	-0.1848	0.0427	0.2275	976.0876	0.131097	-379.990605	-379.982449	-379.981505	-380.022981	29.349
C         -0.00800        1.46110        0.02280
N         -0.03400        0.01810       -0.00110
C         -1.15900       -0.80770        0.02050
C         -0.74650       -2.09320       -0.01470
C         -1.51320       -3.36810       -0.01250
N          0.64880       -2.05360       -0.05900
C          1.12450       -0.74920       -0.05090
O          2.27980       -0.36330       -0.08020
H          1.04110        1.76120       -0.00300
H         -0.52440        1.88430       -0.84610
H         -0.47200        1.85360        0.93450
H         -2.15720       -0.40530        0.05860
H         -1.31930       -3.96300       -0.91380
H         -1.26060       -3.99510        0.85170
H         -2.58490       -3.16020        0.02690
H          1.27050       -2.84220       -0.08890
