13
gdb 5712	5.04304	2.07765	1.49923	1.3613	59.17	-0.2348	-0.0055	0.2293	770.8476	0.098295	-398.606351	-398.600467	-398.599523	-398.636603	21.612
C         -0.07460        1.49380        0.10600
O          1.24560        1.90460       -0.29780
C          2.12090        0.79370       -0.61260
C          1.24970       -0.39410       -0.37730
C          0.03730        0.01550        0.02030
O         -0.75270       -1.06540        0.23340
C          0.08430       -2.11070       -0.06680
N          1.28260       -1.77790       -0.43490
H         -0.28500        1.86800        1.11820
H         -0.82110        1.92570       -0.57590
H          2.46540        0.89180       -1.65060
H          3.00120        0.83420        0.04260
H         -0.33710       -3.09830        0.03300
