16
gdb 6114	2.92481	1.89205	1.51861	2.987	60.7	-0.2654	-0.0007	0.2647	890.6775	0.127829	-420.909173	-420.900534	-420.899589	-420.942172	30.863
C          0.21390        1.40730       -0.11740
C         -0.07480       -0.06940        0.06330
C         -1.52710       -0.44850       -0.14940
O          0.79470       -0.87190       -0.85580
C          1.50910       -1.38850        0.17960
O          2.49210       -2.06180        0.14670
C          0.63980       -0.74810        1.26620
O          1.29010        0.10150        2.17250
H          1.27100        1.62230        0.04590
H         -0.06380        1.72200       -1.12750
H         -0.36550        1.99320        0.60210
H         -1.85720       -0.15800       -1.15100
H         -1.67150       -1.52720       -0.04070
H         -2.16080        0.06230        0.58240
H         -0.00150       -1.48070        1.77640
H          2.11190       -0.32720        2.43820
