14
gdb 3670	7.44031	1.99441	1.59195	2.1592	60.19	-0.196	0.036	0.232	759.1301	0.115322	-320.785748	-320.778681	-320.777737	-320.81738	25.405
C         -0.01870        1.50310        0.08550
C          0.00280        0.01750       -0.07110
C         -0.10690       -0.78480       -1.19000
C         -0.01830       -2.11260       -0.69900
N         -0.14550       -3.29550       -1.43080
N          0.14030       -2.14180        0.61970
N          0.14020       -0.82850        0.97770
H          0.91170        1.88080        0.52540
H         -0.14380        1.98060       -0.88840
H         -0.84390        1.83290        0.72720
H         -0.24560       -0.45940       -2.20860
H          0.33610       -3.26530       -2.31950
H          0.16450       -4.09430       -0.89150
H          0.24520       -0.59290        1.94870
