16
gdb 14935	4.50511	1.56048	1.20887	3.0461	68.65	-0.2274	-0.0568	0.1707	969.7726	0.132581	-379.952796	-379.945468	-379.944524	-379.984666	26.92
O         -0.85850        1.31350       -0.08650
C          0.25890        0.88970        0.09280
C          1.47120        1.76540        0.11780
N          2.60340        1.18670        0.30640
C          3.77050        2.06410        0.30990
C          3.59040        3.33470       -0.53640
C          2.29940        4.05960       -0.13740
N          1.22220        3.08910       -0.06620
H          0.48990       -0.18020        0.25120
H          3.99880        2.33650        1.35170
H          4.63230        1.48980       -0.04700
H          4.44770        4.00400       -0.41930
H          3.53310        3.05460       -1.59430
H          2.43220        4.56460        0.83050
H          2.04390        4.83150       -0.87100
H          0.26100        3.34500       -0.23010
