15
gdb 16718	5.96773	1.40733	1.26004	4.732	73.8	-0.249	-0.0415	0.2074	945.0782	0.121085	-325.546303	-325.539792	-325.538848	-325.576931	25.231
N          0.04480       -1.12320        0.13910
C         -0.01090        0.03330        0.08390
C         -0.03540        1.45040        0.00890
C         -1.14140        2.21500       -0.01990
C         -0.81060        3.65910       -0.00840
C         -0.07130        4.13470        1.23400
C          0.71400        3.72220        0.02300
C          1.23770        2.28850       -0.03920
H         -2.15420        1.83070       -0.02120
H         -1.42360        4.36370       -0.55770
H         -0.11700        5.19570        1.45460
H         -0.08110        3.48770        2.10530
H          1.24280        4.48900       -0.52940
H          1.91360        2.04790        0.78920
H          1.79220        2.09520       -0.96520
