15
gdb 15919	3.71146	1.89754	1.53316	0.669	67.49	-0.2306	0.0187	0.2493	842.3449	0.118622	-362.571521	-362.564462	-362.563518	-362.602727	26.938
C         -0.11570       -1.23270       -0.21190
C         -0.03620       -0.04230       -0.06110
C          0.05600        1.38890        0.08950
C         -0.36500        2.26980       -1.11930
O          0.85030        3.04540       -1.04810
C          1.35080        2.27560        0.05280
C          0.92080        2.84740        1.41660
N         -0.25200        1.92840        1.43410
H         -0.18230       -2.28580       -0.33210
H         -0.44070        1.72910       -2.06970
H         -1.26830        2.87430       -0.96570
H          2.36950        1.91660       -0.09990
H          1.60220        2.65740        2.25340
H          0.70110        3.91890        1.36380
H         -1.16440        2.36400        1.52180
