17
gdb 15254	2.90177	1.59363	1.42156	1.4187	66.49	-0.2375	-0.0428	0.1947	958.529	0.140184	-400.961307	-400.952481	-400.951537	-400.994683	31.175
C         -1.89380        0.57840       -0.86920
N         -0.82050       -0.38640       -0.63850
C          0.43470       -0.31080       -1.34690
C          0.76810        0.73810       -2.38970
O          0.27900        0.35250       -3.66850
C          0.37260       -0.01590        0.14350
C          0.62150        1.35190        0.67280
O          0.26570        2.39810        0.17620
H         -1.57390        1.61640       -0.99940
H         -2.45280        0.24900       -1.75190
H         -2.57600        0.53900       -0.01490
H          0.83760       -1.29150       -1.60110
H          0.41630        1.72960       -2.09110
H          1.85700        0.79360       -2.49350
H         -0.68000        0.43020       -3.65330
H          0.70740       -0.79790        0.82290
H          1.18580        1.34920        1.63190
