15
gdb 3435	4.91142	2.66825	1.94781	1.797	62.	-0.2344	0.011	0.2454	682.0174	0.125526	-308.512137	-308.505941	-308.504997	-308.541884	23.717
C         -0.02600        1.50240        0.06470
C         -0.02080        0.00870       -0.00270
C          0.00370       -0.77230       -1.08930
C         -0.00760       -2.25060       -0.75640
C          0.03010       -2.25570        0.76760
O          1.20040       -1.65960        1.33040
C          0.00090       -0.85650        1.22330
H          0.86830        1.87950        0.57640
H         -0.06150        1.94870       -0.93270
H         -0.89000        1.87230        0.63140
H          0.06510       -0.40880       -2.10980
H         -0.91130       -2.75010       -1.12990
H          0.85030       -2.78390       -1.18400
H         -0.39220       -3.08030        1.33570
H         -0.41790       -0.52910        2.17130
