12
gdb 21941	3.59385	1.79042	1.20696	2.7879	52.17	-0.2766	-0.043	0.2336	900.9093	0.083338	-451.745365	-451.738204	-451.73726	-451.777298	25.292
O          0.39080        1.03380        0.85590
C          0.03610        0.23120       -0.24120
C         -1.39340       -0.22180       -0.20320
N         -2.14080       -0.10170        0.85610
O         -3.35500       -0.64880        0.54590
N         -3.36680       -1.12410       -0.74540
C         -2.17580       -0.87100       -1.20750
O         -1.74950       -1.17100       -2.43950
H         -0.03160        0.67040        1.64260
H          0.20480        0.82220       -1.14880
H          0.67880       -0.66210       -0.32940
H         -2.47290       -1.59470       -2.92040
