12
gdb 19635	6.0673	1.79283	1.72119	4.9957	62.52	-0.2494	-0.0129	0.2365	738.2044	0.084505	-340.266386	-340.260745	-340.259801	-340.296077	21.866
N          0.04610       -1.09060        0.00180
C          0.02120        0.06720        0.00380
C          0.00380        1.48330        0.01930
C          0.09070        2.48770        1.15660
C         -0.82320        3.40830        0.31030
C          0.18250        3.43220       -0.78270
C          1.12190        2.51270        0.03640
N         -0.91220        2.39530       -0.80320
H          0.22060        2.31270        2.21430
H         -1.64720        4.06500        0.55690
H          0.34520        4.11240       -1.60850
H          2.19030        2.36030        0.07450
