12
gdb 20396	4.95031	2.15903	1.5337	4.9059	56.41	-0.2296	-0.0455	0.1841	747.7041	0.085006	-414.612893	-414.606887	-414.605943	-414.643519	21.817
C          0.03690        1.37400       -0.11650
C          1.53090        1.85320        0.07330
C          2.09510        0.59280        0.63510
C          1.17070       -0.38860        0.60970
O         -0.04710       -0.07160        0.12280
N          1.72270       -1.52840        1.08580
N          2.92880       -1.30950        1.40160
O          3.22810        0.11650        1.11100
H         -0.62390        1.86090        0.60540
H         -0.33640        1.55660       -1.12500
H          1.99990        2.13760       -0.87500
H          1.59390        2.71300        0.74610
