15
gdb 2645	7.10642	0.94254	0.84523	0.291	73.3	-0.2384	0.0491	0.2875	1354.1388	0.122038	-271.336383	-271.327125	-271.32618	-271.3734	29.477
C          0.08610        1.51370       -0.14770
C          0.03560        0.06740        0.01110
C         -0.01010       -1.12750        0.14160
C         -0.05850       -2.58320        0.30190
C         -1.40010       -3.15090        0.14420
C         -2.49920       -3.62240        0.01580
C         -3.83120       -4.18880       -0.14040
H          0.75250        1.80230       -0.96810
H         -0.90620        1.92230       -0.36840
H          0.45030        2.00300        0.76250
H          0.62300       -3.05230       -0.42210
H          0.33790       -2.85420        1.29090
H         -3.86360       -4.91270       -0.96230
H         -4.15440       -4.70630        0.76960
H         -4.56960       -3.40900       -0.35730
