18
gdb 6882	2.63774	1.57288	1.32462	2.8827	70.41	-0.2397	-0.0179	0.2219	1023.1601	0.150918	-384.938592	-384.929504	-384.92856	-384.97185	33.176
C         -0.04020        1.55430       -0.10360
C          0.02250        0.03880       -0.03500
C         -1.21760       -0.65730       -0.56440
C          1.32940       -0.64530       -0.22140
O          2.44240        0.15540       -0.47400
C          0.69250       -0.65140        1.17930
C          1.29980        0.11910        2.28260
O          1.24480       -0.21770        3.44380
H          0.91410        2.02250        0.13740
H         -0.30870        1.86290       -1.12000
H         -0.80590        1.94390        0.57540
H         -1.40100       -0.37320       -1.60700
H         -1.12130       -1.74640       -0.52370
H         -2.10050       -0.37740        0.02040
H          1.32940       -1.60540       -0.73830
H          3.22280       -0.28920       -0.12630
H          0.24140       -1.58220        1.50900
H          1.83690        1.04310        1.98520
