15
gdb 5698	4.77607	2.07447	1.47791	2.9135	67.35	-0.1757	0.043	0.2187	812.2066	0.122238	-362.683894	-362.677562	-362.676618	-362.714264	24.551
C          0.06590        1.35950       -0.18280
C          1.49780        1.87060        0.20390
C          2.09150        0.55400        0.58560
C          1.12000       -0.39500        0.71100
O         -0.13790        0.04670        0.40040
C          1.68360       -1.59070        1.21230
C          3.02910       -1.30510        1.38700
N          3.27010        0.00130        1.02350
H         -0.73570        2.01030        0.17270
H         -0.01250        1.26140       -1.27230
H          1.96650        2.37720       -0.64700
H          1.46870        2.58910        1.03560
H          1.19960       -2.53070        1.42140
H          3.83490       -1.94030        1.71820
H          4.17590        0.43460        1.01060
