12
gdb 21347	5.7368	1.37641	1.31188	3.4886	60.16	-0.2836	-0.0277	0.2559	906.015	0.086345	-373.709126	-373.702566	-373.701622	-373.741142	22.559
N         -0.03810       -1.16210       -0.00590
C          0.00000       -0.00850        0.00130
C          0.02200        1.46100        0.01040
N          1.36450        2.00420        0.00030
N          2.04150        2.22420        1.12380
C          3.22710        2.64670        0.68750
C          3.21220        2.65720       -0.71670
N          2.01760        2.24110       -1.13400
H         -0.49920        1.83760       -0.87230
H         -0.48140        1.82620        0.90820
H          4.00660        2.92240        1.37930
H          3.97690        2.94340       -1.42060
