17
gdb 19914	3.90826	1.90391	1.65969	2.2867	67.71	-0.1989	0.0665	0.2654	840.0447	0.141731	-363.743112	-363.735851	-363.734907	-363.774835	27.652
C          0.17900        1.00800       -0.34290
O         -0.18380        0.10170        0.67580
C         -1.29400       -0.66230        0.36290
C         -1.50250       -1.65480       -0.76290
C         -0.34670       -2.65170       -1.03820
N          0.83530       -2.28420       -0.22100
C         -0.29760       -3.04420        0.37910
C         -1.47670       -2.09370        0.72970
H          1.01350        1.60000        0.04020
H          0.50040        0.47860       -1.24960
H         -0.64810        1.68750       -0.60280
H         -2.22970       -0.10770        0.50810
H         -2.36160       -1.58020       -1.41900
H         -0.25730       -3.24920       -1.93610
H          1.55400       -2.97920       -0.43070
H         -0.14420       -4.01470        0.83160
H         -2.30420       -2.43080        1.34260
