17
gdb 8775	3.92165	1.16608	1.13008	1.6147	66.99	-0.2497	-0.0436	0.2061	1106.9642	0.139389	-401.031473	-401.022166	-401.021221	-401.066101	31.628
C          0.11400        1.42490       -0.10840
C         -0.04850       -0.09300       -0.01040
C          0.74760       -0.69230        1.15390
O          1.59390       -0.10800        1.77500
N         -1.42750       -0.55250        0.05560
C         -2.27400       -0.11920        1.15990
C         -1.96300       -1.33730       -0.92930
O         -3.10370       -1.74190       -0.96410
H          1.17390        1.67820       -0.17620
H         -0.40400        1.80740       -0.99130
H         -0.28360        1.92550        0.77800
H          0.38300       -0.55840       -0.91040
H          0.47620       -1.75020        1.37470
H         -2.53060        0.94280        1.07980
H         -3.19070       -0.70740        1.12080
H         -1.77300       -0.28370        2.11980
H         -1.21610       -1.57410       -1.71330
