12
gdb 8758	3.30206	1.52758	1.18683	4.2346	59.18	-0.2716	-0.0818	0.1898	962.219	0.079705	-418.448865	-418.440635	-418.439691	-418.482187	28.31
O         -0.00650        1.47560        0.07610
C          0.02960        0.09570        0.11860
C          0.68880       -0.47820       -1.13440
O          1.14600        0.25650       -1.97310
C          0.77990       -0.43460        1.36930
O          1.44600        0.27920        2.07400
C          0.60640       -1.85550        1.61210
C          0.44770       -3.03730        1.77910
H          0.52190        1.73610       -0.69540
H         -0.98660       -0.33490        0.16850
H          0.72730       -1.57950       -1.22210
H          0.32010       -4.08000        1.94590
