14
gdb 2024	7.59876	1.79373	1.66031	2.5522	58.1	-0.2424	-0.026	0.2165	746.2553	0.112831	-324.5518	-324.545426	-324.544482	-324.582384	23.914
O         -0.01220        0.21360       -0.72320
C         -0.01410        1.25890       -0.14370
C         -1.13710        2.19200        0.36080
C         -0.02950        3.19260        0.74460
C         -0.06280        4.66200        0.59880
N          0.02470        4.03130        1.93470
C          1.08980        2.21190        0.35140
H         -1.86120        2.50270       -0.39830
H         -1.68190        1.76580        1.21160
H          0.82980        5.20060        0.29130
H         -0.99890        5.12740        0.29960
H         -0.88480        4.05710        2.39030
H          1.65230        1.81500        1.20310
H          1.79720        2.53930       -0.41590
