15
gdb 2474	5.02546	2.68309	2.41851	3.0894	60.44	-0.2321	-0.0038	0.2283	614.1857	0.127579	-308.528193	-308.522816	-308.521872	-308.557156	21.718
O          0.01990        0.05280       -0.03170
C          0.01730        1.25370       -0.00200
C         -1.19430        2.21570        0.01590
C         -0.40550        3.53890        0.05260
C          0.70070        3.28430       -1.01250
C          1.19260        2.22040        0.02780
C          0.69030        3.23150        1.11470
H         -1.81380        2.08870       -0.87730
H         -1.82240        2.04480        0.89570
H         -0.97770        4.46560        0.07280
H          0.39990        2.93640       -2.00500
H          1.40420        4.11500       -1.10060
H          2.19070        1.78840        0.02200
H          1.39260        4.05670        1.25070
H          0.37980        2.83490        2.08570
