17
gdb 12929	3.47081	1.7431	1.42992	0.7699	64.67	-0.2109	0.0732	0.2841	919.7035	0.141266	-400.922046	-400.913893	-400.912949	-400.954472	29.914
C          0.17450        0.94980       -0.43220
O         -0.15690        0.04270        0.60550
C         -1.35540       -0.62120        0.38650
C         -1.56190       -1.64910       -0.70350
N         -0.27440       -2.31500       -0.98150
C         -0.24460       -2.83720        0.43180
C         -1.51690       -2.05260        0.77920
O         -2.49600       -2.51880        1.63630
H          1.12320        1.41590       -0.15570
H          0.29120        0.42590       -1.38840
H         -0.58760        1.73630       -0.54110
H         -2.25560       -0.02530        0.56610
H         -2.36090       -1.58990       -1.43350
H         -0.42110       -3.08840       -1.62250
H         -0.42630       -3.91410        0.48690
H          0.66750       -2.57950        0.97720
H         -2.43780       -2.02560        2.46230
