18
gdb 14279	3.32971	1.77086	1.70688	2.7931	70.61	-0.2386	-0.0147	0.2239	873.4052	0.154515	-347.829645	-347.822271	-347.821327	-347.86124	28.528
C         -0.38200        1.42250       -0.09930
C         -0.02330       -0.04450        0.02010
C          1.33450       -0.61860       -0.32140
C          2.52230        0.31670       -0.42540
C          2.62990        1.01950        0.93870
O          3.32240        1.97310        1.18040
C          1.70530        0.30970        1.94240
C          0.83610       -0.62290        1.12320
H          0.43410        2.09200        0.18420
H         -0.66020        1.67000       -1.12960
H         -1.23680        1.66510        0.54140
H         -0.84310       -0.70010       -0.26470
H          1.36520       -1.54130       -0.88960
H          3.45100       -0.24460       -0.59010
H          2.46380        1.06560       -1.22150
H          2.33580       -0.25410        2.64180
H          1.16690        1.05450        2.53700
H          0.51150       -1.54860        1.58450
