11
gdb 1946	6.42998	1.91271	1.74179	4.8676	47.88	-0.2766	-0.0503	0.2263	693.6514	0.077251	-380.415966	-380.409727	-380.408783	-380.446784	21.184
O         -0.39350        0.16050        0.04370
C         -0.05130        1.26420       -0.27930
C          1.28610        1.88170        0.06390
C          1.31160        2.70240        1.38010
C          2.29910        1.61580        1.81700
O          2.95080        1.35450        2.77100
O          2.23130        0.93250        0.62500
H         -0.71860        1.95150       -0.84840
H          1.70980        2.39400       -0.80570
H          1.73600        3.70470        1.31830
H          0.38400        2.72270        1.95470
