11
gdb 8729	2.6687	1.90534	1.22401	3.8418	58.51	-0.3092	-0.0998	0.2094	915.5091	0.069211	-397.373812	-397.365818	-397.364874	-397.406736	27.508
O          0.11490        1.44810       -0.15370
C          0.02840        0.06570       -0.03680
C          0.63900       -0.63410       -1.18750
N          1.11610       -1.18370       -2.08440
C          0.72480       -0.40360        1.26990
O          1.28470        0.42470        1.95230
C          0.63890       -1.79910        1.59050
C          0.53520       -2.97460        1.82560
H          0.73250        1.73060        0.54310
H         -1.02430       -0.25050        0.02020
H          0.45590       -4.01350        2.04140
