18
gdb 19908	4.46779	1.53921	1.3855	1.7462	70.56	-0.228	0.0572	0.2852	962.693	0.15314	-347.717121	-347.709709	-347.708765	-347.749725	28.536
C          0.00730        1.55660        0.29520
C          0.08310        0.13010       -0.26270
C         -1.29010       -0.55080       -0.24830
C         -1.93190       -1.43520       -1.29130
C         -0.98350       -2.53700       -1.85680
O          0.31950       -2.40070       -1.27160
C         -0.71720       -3.04580       -0.51800
C         -1.65140       -1.97090        0.11840
H          0.98980        2.03880        0.28300
H         -0.67600        2.17890       -0.29410
H         -0.35240        1.56070        1.33060
H          0.47750        0.15330       -1.28160
H          0.79670       -0.45650        0.32100
H         -2.05790        0.11110        0.15590
H         -2.89290       -1.21400       -1.73860
H         -1.05510       -3.02980       -2.81870
H         -0.52360       -4.04500       -0.14730
H         -2.36960       -2.21370        0.89160
