14
gdb 9466	2.816	1.80632	1.71349	3.5407	58.17	-0.2708	-0.0525	0.2182	843.0657	0.105407	-419.710333	-419.702502	-419.701558	-419.7429	27.115
C          0.04380        1.68700        0.29720
C         -0.02940        0.17770        0.05800
C          0.64520       -0.41650       -1.18770
O          1.59650       -1.15010       -0.33840
C          1.05940       -0.63870        0.80440
O          1.39620       -0.81050        1.92990
C         -1.42200       -0.35770        0.34620
O         -2.04410       -1.07280       -0.39410
H          1.06290        2.05550        0.15340
H         -0.61810        2.22380       -0.38950
H         -0.25730        1.92420        1.32190
H          0.02840       -1.10440       -1.76510
H          1.17430        0.29050       -1.82840
H         -1.83420       -0.03080        1.32500
