19
gdb 1722	4.07415	1.99197	1.77462	1.9318	66.66	-0.242	0.0714	0.3135	822.1934	0.170864	-310.904927	-310.896872	-310.895928	-310.937529	29.208
C          0.09160        1.51040       -0.16500
C         -0.05870        0.00310        0.06700
C         -1.50610       -0.50730        0.09800
C         -2.33810        0.11770        1.21440
C         -2.18510       -0.55180       -1.29850
O         -2.11920       -1.99010       -1.34300
C         -1.59680       -2.05370       -0.00190
H          1.14700        1.78430       -0.25600
H         -0.40990        1.82520       -1.08710
H         -0.32900        2.09540        0.65840
H          0.47810       -0.53690       -0.72330
H          0.43080       -0.27280        1.01100
H         -2.44670        1.19880        1.08140
H         -3.34380       -0.31380        1.24240
H         -1.87360       -0.05200        2.19290
H         -3.22130       -0.18770       -1.32350
H         -1.62860       -0.09030       -2.12430
H         -0.64350       -2.59610        0.04400
H         -2.30670       -2.52310        0.69300
