24
gdb 5894	3.94537	0.88969	0.87894	0.9955	82.66	-0.2492	0.0732	0.3224	1494.2921	0.220223	-351.407117	-351.3963	-351.395356	-351.442899	39.045
C          0.14440        1.38020        0.00790
O          0.05670       -0.02240        0.00140
C         -1.27760       -0.49050        0.01150
C         -1.23210       -2.01510        0.00300
C         -2.59200       -2.75450        0.01200
C         -3.42240       -2.40270       -1.23720
C         -2.30090       -4.26720        0.00100
C         -3.39820       -2.41640        1.28070
H          1.20520        1.64370       -0.00070
H         -0.33870        1.82690       -0.87650
H         -0.32190        1.81750        0.90590
H         -1.80140       -0.11150        0.90470
H         -1.81810       -0.10210       -0.86770
H         -0.66210       -2.32470       -0.88180
H         -0.64530       -2.33400        0.87340
H         -2.86150       -2.60950       -2.15560
H         -4.34190       -2.99750       -1.26870
H         -3.71590       -1.34830       -1.25440
H         -1.71690       -4.56480        0.87870
H         -3.23170       -4.84510        0.00680
H         -1.73390       -4.55510       -0.89110
H         -3.69130       -1.36240        1.31500
H         -4.31700       -3.01160        1.32350
H         -2.81970       -2.63320        2.18580
