19
gdb 13790	3.15763	1.60964	1.18312	3.1893	73.29	-0.241	0.0134	0.2544	1070.7403	0.163773	-365.074879	-365.065753	-365.064809	-365.108889	32.438
C         -0.34390        1.38490       -0.31600
C         -0.01550       -0.10490       -0.16180
C          0.88820       -0.62860       -1.25830
C          0.94950       -2.09900       -1.58360
N          0.36660       -1.14780       -2.50380
C         -0.92970       -1.10490       -2.99350
C         -1.39050       -2.39680       -3.64560
O         -1.60850       -0.09920       -2.96740
H          0.57000        1.98950       -0.31920
H         -0.87750        1.55590       -1.25290
H         -0.96740        1.73230        0.51340
H          0.48860       -0.28060        0.79770
H         -0.94050       -0.69230       -0.14360
H          1.81380       -0.06590       -1.38390
H          1.88630       -2.55980       -1.88800
H          0.27520       -2.75440       -1.03460
H         -1.71400       -3.10740       -2.87640
H         -2.23800       -2.18260       -4.29680
H         -0.58420       -2.86820       -4.21290
