16
gdb 18489	5.65901	1.24709	1.15438	5.2852	68.66	-0.2448	0.0415	0.2863	1024.7384	0.132	-342.753744	-342.746589	-342.745645	-342.785583	26.738
N         -0.09870       -1.08010       -0.29980
C         -0.06620        0.05310       -0.07420
C          0.00620        1.48470        0.20690
C          1.42870        2.04040        0.05810
C          2.06880        2.07450       -1.38000
C          2.17580        3.59620       -1.24810
N          0.79110        4.08900       -1.04940
C          1.56150        3.57060        0.10700
H         -0.65640        2.02200       -0.47930
H         -0.36580        1.65960        1.22360
H          2.10210        1.55640        0.76880
H          3.03410        1.56680       -1.41210
H          1.44120        1.72020       -2.20130
H          2.94150        4.24810       -1.64920
H          0.83250        5.10650       -1.00460
H          1.74330        4.19020        0.97670
