16
gdb 14884	4.8351	1.45202	1.16181	1.1739	76.39	-0.2314	-0.0183	0.213	1005.7881	0.130906	-346.580212	-346.572849	-346.571905	-346.611691	28.049
C          0.12140       -1.20150        0.03630
C         -0.01200       -0.00380        0.01120
C         -0.08890        1.41400       -0.01740
C         -1.24920        2.08720       -0.00940
C         -1.29430        3.58850        0.02240
C          0.07370        4.14870        0.41700
O          1.10360        3.52990       -0.33520
C          1.23790        2.15750       -0.04260
H          0.21720       -2.25860        0.05980
H         -2.18740        1.54090       -0.01640
H         -1.59320        3.97860       -0.96060
H         -2.05870        3.92980        0.73230
H          0.14390        5.22010        0.21140
H          0.24320        3.99580        1.49560
H          1.75430        2.00770        0.92240
H          1.88200        1.73560       -0.82090
