17
gdb 20232	4.10635	2.61434	2.21556	1.9857	68.64	-0.2386	0.0742	0.3128	688.6682	0.146462	-326.678931	-326.673553	-326.672609	-326.708122	22.854
C         -0.05060        1.59750       -0.00100
C          1.43580        2.08370       -0.01300
C          2.25610        0.78450        0.01280
C          2.11010       -0.05660        1.28110
C          0.68910       -0.52140        1.29250
C          0.05590        0.06480        0.03050
C          1.40430       -0.34990       -0.61020
N          1.72990       -1.31680        0.55660
H         -0.60750        1.97790        0.86080
H         -0.58170        1.93460       -0.89730
H          1.65190        2.66510       -0.91540
H          1.67270        2.72390        0.84230
H          3.28290        0.85950       -0.34670
H          2.74420       -0.07670        2.16030
H          0.20230       -0.90810        2.18070
H         -0.82190       -0.48320       -0.31370
H          1.50520       -0.68400       -1.64080
