20
gdb 18521	5.46278	1.07135	1.02574	1.5024	75.02	-0.2319	0.0891	0.321	1237.0705	0.176743	-348.966482	-348.958286	-348.957342	-348.999455	30.782
C         -0.09460        1.52660        0.04550
C         -0.08760        0.00610       -0.12940
C          0.91490       -0.47130       -1.18780
C          0.90850       -1.97830       -1.36050
O         -0.38330       -2.52000       -1.79000
C          0.26100       -3.25780       -2.83030
C          0.87740       -2.33960       -3.83500
C          1.61190       -2.64900       -2.54320
H          0.88970        1.89640        0.35450
H         -0.35700        2.03180       -0.89090
H         -0.81980        1.83690        0.80420
H          0.14380       -0.47350        0.83110
H         -1.08660       -0.34330       -0.41330
H          0.69570        0.01000       -2.14830
H          1.93270       -0.16650       -0.90630
H          1.18840       -2.46770       -0.41700
H         -0.06590       -4.27530       -3.01000
H          1.30410       -2.82140       -4.70960
H          0.43220       -1.36630       -4.01830
H          2.59680       -3.09500       -2.51910
