15
gdb 11771	4.64468	1.75381	1.59732	5.0171	65.55	-0.2639	0.0133	0.2772	818.7848	0.120903	-362.650529	-362.644294	-362.64335	-362.680751	24.666
N         -0.02110       -1.13600       -0.05660
C         -0.01290        0.01880       -0.03230
C          0.04280        1.46420        0.05090
C         -0.26160        2.26240        1.35000
C          0.41180        3.38990        0.50510
C          1.36320        2.27990       -0.04390
C         -0.58450        3.48970       -0.65500
O         -0.80540        2.08180       -0.93010
H         -1.31460        2.36310        1.61920
H          0.34100        1.94470        2.20080
H          0.78040        4.31350        0.94630
H          2.11640        1.96380        0.67770
H          1.78800        2.39650       -1.04250
H         -1.53210        3.96550       -0.38120
H         -0.17580        3.98010       -1.54480
