22
gdb 10354	1.89944	1.58013	1.1056	2.011	73.8	-0.2539	0.0692	0.3231	1208.8146	0.198167	-387.334267	-387.323816	-387.322871	-387.369354	37.794
C         -1.54410       -0.44860       -0.20550
C         -0.05610       -0.08810       -0.34690
C          0.10600        1.35500       -0.84690
C          0.76890       -0.35280        0.93900
C          0.15930        0.25150        2.21390
O          1.04670        0.20500        3.32560
C          1.05320       -1.84860        1.15160
O          1.76680       -2.44460        0.07570
H         -2.05860        0.21860        0.49530
H         -2.05050       -0.35700       -1.17170
H         -1.68940       -1.47610        0.14170
H          0.37510       -0.75130       -1.10630
H         -0.30170        2.08340       -0.13640
H          1.16000        1.60430       -1.01150
H         -0.42130        1.49950       -1.79580
H          1.74810        0.13730        0.79630
H         -0.17970        1.28070        2.02650
H         -0.71950       -0.32330        2.52490
H          1.79760        0.77210        3.12300
H          1.57910       -1.97990        2.10630
H          0.11230       -2.40570        1.22090
H          2.65290       -2.06880        0.06790
