15
gdb 3046	11.1664	1.04416	1.02089	2.7579	58.69	-0.2522	-0.0231	0.2291	1095.2583	0.12322	-345.638912	-345.631336	-345.630392	-345.671797	25.526
O         -0.12110        0.06530        0.17100
C         -0.02240        1.24540       -0.04410
C          1.27770        2.01220       -0.10570
C          1.45120        2.73700       -1.45470
C          2.67610        3.61950       -1.45960
C          2.69360        4.93530       -2.10890
O          2.58680        4.82000       -0.68780
H         -0.92870        1.87130       -0.22570
H          1.26060        2.77110        0.68890
H          2.10280        1.32180        0.09180
H          1.53060        2.00280       -2.26600
H          0.56850        3.35420       -1.65950
H          3.62790        3.09620       -1.34780
H          3.63170        5.34880       -2.47600
H          1.79890        5.29310       -2.61700
