13
gdb 1118	5.24232	1.81227	1.43005	3.3056	51.31	-0.2438	0.0098	0.2536	801.7128	0.101907	-377.848074	-377.840535	-377.839591	-377.880298	26.616
N          0.41650        0.55540       -0.46510
C         -0.51970        0.42810        0.50840
O         -0.97910        1.35000        1.15280
C         -0.92510       -1.02700        0.81470
C         -1.15920       -1.90810       -0.40780
N         -2.30290       -2.63850       -0.38490
O         -0.36790       -1.97400       -1.33760
H          0.64980        1.48880       -0.76340
H          0.58220       -0.23400       -1.07830
H         -0.10140       -1.48410        1.37680
H         -1.79300       -0.98010        1.47330
H         -2.97800       -2.56080        0.35450
H         -2.50440       -3.23670       -1.16990
