18
gdb 12928	3.60698	1.67009	1.41025	2.5132	68.77	-0.2296	0.0782	0.3078	960.8883	0.152127	-384.883769	-384.87551	-384.874566	-384.916331	30.171
C          0.24590        1.09770        0.35830
O         -0.39820        0.03400       -0.31530
C          0.39320       -0.53490       -1.30180
C          1.48590       -1.54280       -0.99860
C          0.98290       -2.47970        0.09390
O         -0.24010       -2.75980       -0.63180
C          0.19210       -1.95080       -1.72720
C         -0.14200       -2.43280       -3.10130
H          1.18550        0.77150        0.82670
H          0.47120        1.93210       -0.32360
H         -0.43900        1.45000        1.13290
H          0.65240        0.13890       -2.12340
H          2.50840       -1.45250       -1.34260
H          1.58230       -3.39020        0.20080
H          0.78540       -2.04380        1.07920
H         -1.22920       -2.46180       -3.23550
H          0.27630       -1.76400       -3.85880
H          0.24820       -3.44150       -3.26790
