16
gdb 13001	2.74095	2.65785	1.58299	2.2454	65.58	-0.2288	0.0201	0.2488	824.5563	0.131353	-379.923505	-379.916209	-379.915264	-379.954504	28.319
C         -0.07800        1.55190        0.02990
C          0.12590        0.06500        0.00410
O         -0.72280       -0.73630        0.85600
C          0.69620       -0.78640        1.06070
C          1.35750       -1.96410        0.36080
N          1.07140       -1.81680       -1.07330
C          0.45140       -0.71050       -1.25400
N          0.14650       -0.19640       -2.49230
H          0.77290        2.06980       -0.42280
H         -0.97940        1.83720       -0.52520
H         -0.20020        1.89920        1.05840
H          1.04750       -0.39740        2.01300
H          2.44200       -1.96280        0.53290
H          0.97250       -2.92370        0.72540
H          0.26660       -0.85540       -3.24940
H         -0.70220        0.34520       -2.55760
