14
gdb 16473	3.3183	2.84744	1.86383	0.2713	55.93	-0.2465	0.052	0.2984	696.2013	0.107735	-419.5982	-419.592398	-419.591453	-419.627774	23.75
O          0.15560        1.36330        0.12740
C          0.07850       -0.00700        0.08010
C          0.92400       -0.78800        1.06920
O          0.57740       -2.14330        0.71360
C         -0.34080       -1.97510       -0.34020
C         -1.28560       -0.77320       -0.07630
O         -1.32420       -0.44480       -1.50930
C          0.08070       -0.80880       -1.27250
H         -0.43910        1.69160       -0.56170
H          1.99920       -0.62350        0.93780
H          0.65680       -0.58850        2.11290
H         -0.71050       -2.91750       -0.73450
H         -2.20900       -0.69720        0.49750
H          0.77340       -0.77490       -2.11320
