14
gdb 10472	3.02759	1.76076	1.26115	5.4492	60.5	-0.2721	-0.0424	0.2297	938.659	0.104618	-419.689374	-419.681608	-419.680663	-419.721819	27.41
O          0.06020        0.00790        0.04110
C          0.07890        1.19290        0.15510
O          1.15750        1.93050       -0.23020
C          1.04670        3.32210       -0.11780
C          1.34160        3.97470        1.23040
C          2.34860        4.04870        0.12830
C          0.03100        3.96560       -0.99220
O         -0.76860        3.36170       -1.65900
H         -0.72820        1.80450        0.59180
H          0.78390        4.86520        1.49870
H          1.52730        3.28410        2.04460
H          3.21930        3.40690        0.18710
H          2.50300        4.99300       -0.38180
H          0.06370        5.07820       -0.96900
