22
gdb 8155	3.70421	1.56537	1.32074	0.2647	81.51	-0.2495	0.082	0.3315	1049.5544	0.201234	-313.082578	-313.074355	-313.073411	-313.114711	32.571
C          0.01470        1.56240       -0.02070
C          0.07010        0.03620       -0.02750
C          0.88590       -0.57740       -1.19430
C          1.33260       -1.94900       -0.69050
C          2.55970       -1.99950        0.18930
C          1.19000       -1.98050        0.82290
C          0.69100       -3.19650        1.56770
C          0.67780       -0.59660        1.24940
H          1.02050        1.98970        0.07000
H         -0.42900        1.95070       -0.94400
H         -0.58260        1.93830        0.81720
H         -0.95510       -0.34830       -0.11790
H          0.28630       -0.65160       -2.10680
H          1.74830        0.05800       -1.43670
H          1.09680       -2.82750       -1.28250
H          3.11680       -2.93120        0.22350
H          3.18060       -1.10970        0.25700
H          1.04360       -4.12120        1.09890
H          1.03940       -3.20140        2.60780
H         -0.40510       -3.23020        1.58720
H          1.49330        0.02760        1.63780
H         -0.06550       -0.67390        2.04980
