12
gdb 718	6.29327	5.52309	4.39133	1.7566	48.29	-0.2298	0.084	0.3137	384.9781	0.097855	-269.154939	-269.150758	-269.149814	-269.182103	16.78
C         -0.00760        1.50390        0.12780
C          1.51070        1.43580       -0.03840
C          1.89970        0.07980        0.57920
O          0.72180       -0.51570        1.12150
C          0.03780       -0.03360       -0.07100
C          1.41290        0.12960       -0.82640
H         -0.42980        1.85910        1.07310
H         -0.47800        2.00740       -0.72060
H          2.21920        2.24380       -0.16690
H          2.86090       -0.15420        1.01670
H         -0.82850       -0.63090       -0.34650
H          1.80890       -0.19870       -1.77680
