16
gdb 13995	4.26265	1.49781	1.29166	1.4544	71.89	-0.2253	0.0461	0.2714	964.6261	0.129094	-346.534115	-346.526457	-346.525513	-346.566185	28.797
C         -0.06730       -1.22270        0.13000
C         -0.06150       -0.01920        0.09400
C         -0.01220        1.40870        0.04150
C          0.55980        2.21950        1.21750
C          1.32780        2.11710       -0.04610
C          2.69030        1.51730       -0.35780
C          2.80010        2.70420       -1.34070
O          1.51190        3.22270       -0.91970
H         -0.09050       -2.28330        0.16670
H         -0.81350        1.89750       -0.50560
H          0.07130        3.16410        1.43060
H          0.90930        1.66800        2.08360
H          3.40320        1.53450        0.46860
H          2.66660        0.52100       -0.80140
H          3.60290        3.42190       -1.14360
H          2.79940        2.43990       -2.40370
