22
gdb 6893	2.68793	1.41751	1.23982	1.3739	78.69	-0.2377	0.0751	0.3128	1147.4417	0.197632	-350.200372	-350.1903	-350.189355	-350.234609	37.277
C         -0.54600        0.53620       -2.63530
C         -0.23510       -0.46090       -1.51150
C         -1.47910       -0.89040       -0.75960
C         -2.36030       -2.06740       -1.17930
C         -2.07550       -2.93720       -2.38590
C         -1.55810       -2.11640        0.10690
C         -0.38950       -3.05720        0.30070
O         -2.28130       -1.89290        1.29870
H          0.36660        0.85110       -3.15120
H         -1.21960        0.09690       -3.37830
H         -1.03300        1.43420       -2.23960
H          0.28490       -1.32770       -1.93260
H          0.46980       -0.00320       -0.80490
H         -2.04020       -0.05520       -0.34620
H         -3.42010       -1.89620       -1.00590
H         -1.00650       -3.07730       -2.56410
H         -2.51850       -3.93280       -2.26740
H         -2.50090       -2.49580       -3.29440
H          0.19920       -3.19500       -0.60860
H          0.27350       -2.67490        1.08350
H         -0.74210       -4.04770        0.61550
H         -2.71060       -2.72190        1.53950
