24
gdb 5809	3.06892	1.22562	1.12079	1.3192	81.48	-0.2582	0.0656	0.3238	1245.4645	0.220301	-351.42026	-351.409639	-351.408695	-351.455149	40.087
C         -0.82220        1.73910        0.62170
C         -0.39620        0.29980        0.31830
O          0.53990       -0.16030        1.29470
C         -1.61500       -0.62300        0.16110
C         -1.38420       -2.10200       -0.25170
C         -0.77530       -2.92280        0.90170
C         -2.75940       -2.70150       -0.60670
C         -0.46690       -2.19380       -1.48490
H          0.05970        2.37160        0.75440
H         -1.43160        2.15520       -0.18700
H         -1.41690        1.78360        1.54300
H          0.17660        0.29960       -0.61580
H          0.08430       -0.18980        2.14370
H         -2.18620       -0.60570        1.10240
H         -2.26930       -0.15830       -0.58920
H         -1.42280       -2.89340        1.78650
H         -0.66890       -3.97350        0.60880
H          0.20640       -2.54000        1.18490
H         -3.21230       -2.18590       -1.46110
H         -2.66790       -3.76200       -0.86610
H         -3.45490       -2.62450        0.23690
H          0.55130       -1.86500       -1.25730
H         -0.40590       -3.22860       -1.83940
H         -0.84550       -1.58270       -2.31260
