14
gdb 11240	4.5969	1.49621	1.26969	1.3998	64.64	-0.2274	0.0212	0.2486	940.7449	0.107722	-378.706477	-378.698977	-378.698032	-378.738877	27.657
N          0.12390        1.27240        0.08500
C         -0.02720       -0.08220       -0.02520
N         -1.08680       -0.75540        0.18600
C         -0.77220       -2.13760       -0.15660
C          0.75300       -2.12420       -0.53510
O          1.09870       -0.71700       -0.46570
C          1.60160       -2.90120        0.35640
C          2.27680       -3.57070        1.09110
H          1.06230        1.58570        0.27960
H         -0.59570        1.72110        0.63000
H         -0.96320       -2.80770        0.68690
H         -1.38070       -2.48340       -1.00030
H          0.91710       -2.44140       -1.56950
H          2.87880       -4.15890        1.73900
