17
gdb 2797	4.34225	1.96867	1.51587	2.1842	60.17	-0.2405	0.0702	0.3107	831.6037	0.147662	-346.829154	-346.821326	-346.820382	-346.861419	27.722
C         -0.34380        1.52020       -0.06480
C          0.15610        0.08890       -0.02430
O          1.44560       -0.07110       -0.66250
C          1.92870       -0.88630        0.42730
C          0.69360       -0.55020        1.28590
C          0.97070        0.37390        2.45720
O          1.65520       -0.39740        3.43530
H          0.35750        2.21010        0.41180
H         -0.46740        1.83370       -1.10630
H         -1.31700        1.60530        0.43070
H         -0.58600       -0.56550       -0.50710
H          2.01760       -1.94220        0.14060
H          2.89450       -0.53810        0.81030
H          0.12620       -1.41230        1.64420
H          1.58330        1.22760        2.12880
H          0.02570        0.77790        2.85490
H          1.90270        0.18450        4.15970
