14
gdb 21011	6.35448	1.36996	1.1351	2.9346	74.71	-0.226	-0.0039	0.2221	1006.8475	0.107555	-341.57542	-341.567912	-341.566967	-341.60798	26.977
C          0.01990        1.39300        0.09400
N         -0.01860       -0.05050       -0.01360
C         -0.09250       -0.79970       -1.14390
C         -0.05450       -2.11780       -0.75230
C          0.04690       -2.06570        0.66070
N          0.06970       -0.79600        1.09720
C          0.11390       -3.16060        1.55870
C          0.16970       -4.11390        2.29110
H          1.02190        1.73370        0.37160
H         -0.25560        1.82800       -0.86810
H         -0.68830        1.71970        0.85790
H         -0.16660       -0.34160       -2.11750
H         -0.09940       -2.99480       -1.37560
H          0.21890       -4.94740        2.94670
