10
gdb 3830	5.80569	2.85177	1.91239	1.6423	54.9	-0.2522	-0.086	0.1662	596.6744	0.066223	-355.442748	-355.436965	-355.436021	-355.472523	20.605
N         -0.07170        1.32750        0.14010
C         -0.08100        0.06520       -0.01640
C         -1.23900       -0.77960       -0.07990
C         -1.07970       -2.10630       -0.25100
O          0.09160       -2.72310       -0.37030
N          1.34500       -1.82940       -0.30400
N          1.18320       -0.64640       -0.15070
H          0.88910        1.67400        0.14860
H         -2.22240       -0.34140        0.01030
H         -1.91230       -2.80360       -0.30770
