12
gdb 2747	4.60155	2.30758	1.76874	3.1362	52.3	-0.2575	-0.0363	0.2212	685.6949	0.089807	-360.539435	-360.532833	-360.531889	-360.570504	22.576
O         -0.60560        0.78400       -0.58110
C          0.21170        0.95450        0.28810
C          1.39230        1.88170        0.17550
C          1.52470        2.70120       -1.13080
N          1.29340        3.90800       -0.32520
C          1.16570        3.27830        0.87950
O          0.96320        3.64860        2.00050
H          0.12810        0.44150        1.26960
H          2.30110        1.39380        0.53780
H          2.51040        2.66370       -1.60260
H          0.73940        2.48910       -1.85900
H          1.22450        4.88480       -0.56870
