20
gdb 9148	5.47875	0.73023	0.68418	1.8275	81.46	-0.2477	0.041	0.2887	1730.1223	0.174442	-348.985787	-348.975356	-348.974412	-349.023389	35.993
C          0.30720        1.27090        0.58320
C         -0.41770        0.27690       -0.34260
C          0.39720       -0.15230       -1.47470
C          1.09940       -0.48110       -2.39780
C          1.91630       -0.93890       -3.52500
O          2.64890       -2.12210       -3.19880
C          1.06610       -1.12750       -4.79770
C          1.90640       -1.54000       -6.00700
H          1.21720        0.82560        0.99390
H          0.59150        2.17390        0.03630
H         -0.34220        1.56090        1.41460
H         -0.72600       -0.60420        0.23500
H         -1.34590        0.73000       -0.71420
H          2.69170       -0.19050       -3.73620
H          2.02510       -2.73980       -2.80150
H          0.29820       -1.88310       -4.58760
H          0.53220       -0.19110       -4.99680
H          2.63100       -0.76050       -6.26840
H          2.46480       -2.45450       -5.79230
H          1.27490       -1.71580       -6.88280
