15
gdb 862	6.18675	2.12951	1.61604	0.1269	64.89	-0.2015	0.0273	0.2289	776.8712	0.124938	-308.565933	-308.558908	-308.557964	-308.596797	25.372
C          0.12250        1.45090       -0.05510
C         -0.07300       -0.02240       -0.03820
C         -1.16930       -0.82530       -0.06950
C         -0.68820       -2.17660       -0.02710
C          0.66800       -2.10370        0.02710
C          1.75000       -3.12090        0.08840
O          1.05570       -0.79230        0.02090
H          0.71570        1.77050       -0.91980
H         -0.84690        1.95190       -0.10310
H          0.64370        1.80020        0.84390
H         -2.19610       -0.49680       -0.11690
H         -1.27580       -3.08160       -0.03590
H          2.42880       -3.04190       -0.76880
H          2.35680       -3.01200        0.99500
H          1.31550       -4.12310        0.08770
