17
gdb 6750	7.22217	0.67307	0.62281	3.8941	76.27	-0.2486	-0.0143	0.2343	1770.0135	0.140193	-363.877388	-363.86739	-363.866446	-363.915195	33.247
C         -0.02530        1.55970       -0.00290
C         -0.00080        0.03030        0.00280
C          0.74010       -0.53580        1.23210
C          0.77820       -1.99140        1.26220
C          0.79210       -3.19740        1.25770
C          0.77770       -4.65080        1.19070
N          1.37330       -5.25740        2.26070
O          0.27260       -5.26740        0.27200
H          0.98880        1.97440       -0.01930
H         -0.55440        1.94030       -0.88130
H         -0.53010        1.95340        0.88650
H         -1.02190       -0.36570       -0.00690
H          0.48400       -0.34490       -0.90480
H          1.76760       -0.14780        1.25320
H          0.26290       -0.16820        2.15080
H          1.84880       -4.72550        2.96800
H          1.45280       -6.26100        2.25430
