11
gdb 21679	5.81676	1.69007	1.31139	4.5473	56.46	-0.249	-0.1017	0.1474	833.8634	0.072729	-430.71364	-430.707162	-430.706217	-430.744343	23.949
N          0.05510        1.41490        0.06330
C         -0.03760        0.05280       -0.03720
N         -1.21340       -0.49650       -0.02050
O         -1.24540       -1.88460       -0.24790
C         -0.11800       -2.62100       -0.43850
O         -0.18360       -3.80430       -0.64400
C          1.14130       -1.85340       -0.35780
N          1.19550       -0.58870       -0.17400
H          0.92940        1.75970        0.42640
H         -0.77650        1.89740        0.36650
H          2.06120       -2.42600       -0.46090
