20
gdb 9840	3.31075	1.38581	1.15645	0.4118	70.48	-0.2557	0.0694	0.3252	1098.3362	0.175048	-386.1178	-386.108466	-386.107522	-386.151441	35.094
C         -0.44760        1.41250       -0.01930
C          0.02990       -0.04330        0.01830
C          0.99880       -0.32050       -1.14630
O          0.42650       -0.08550       -2.42350
C          0.65330       -0.49430        1.33860
O          0.77620       -1.89760        1.43690
C          1.71400        0.31360        2.04840
C          0.33220        0.15220        2.65230
H          0.35930        2.11140        0.22860
H         -0.78680        1.65390       -1.02950
H         -1.27590        1.58790        0.67190
H         -0.84420       -0.69610       -0.12830
H          1.86020        0.35390       -1.08020
H          1.38140       -1.35080       -1.07930
H         -0.30220       -0.70480       -2.53570
H          1.56490       -2.16480        0.95410
H          2.52680       -0.23990        2.50560
H          1.99200        1.28570        1.65590
H         -0.32080        1.01580        2.67530
H          0.23390       -0.52110        3.49550
