15
gdb 5688	4.67512	2.06546	1.4755	1.88	66.19	-0.2241	0.0071	0.2312	817.2307	0.122603	-362.699722	-362.693659	-362.692715	-362.730082	23.133
C          0.10670        1.45360       -0.26900
C          1.50500        1.97840        0.23540
C          2.11910        0.68580        0.63250
C          1.30200       -0.38210        0.64130
C         -0.09140       -0.02740        0.22800
N          1.99460       -1.49880        1.08810
C          3.18270       -1.03250        1.31680
O          3.35010        0.30340        1.06940
H         -0.70490        2.10450        0.06270
H          0.10140        1.46670       -1.36180
H          2.04610        2.51480       -0.55100
H          1.40470        2.66920        1.08240
H         -0.79250       -0.08350        1.06960
H         -0.49640       -0.66580       -0.56340
H          4.05380       -1.56230        1.66900
