20
gdb 11792	3.99195	1.70705	1.56918	1.0691	74.29	-0.2409	0.0871	0.3281	917.7532	0.178923	-348.989704	-348.982358	-348.981413	-349.021123	29.162
C         -0.12350        1.35310        0.01770
O          0.12200       -0.03680       -0.03290
C          0.71860       -0.56780        1.10430
C          0.01200       -0.61220        2.50300
C          1.00820       -1.78710        2.71650
C          0.81220       -2.10890        1.20740
C          2.37100       -1.06140        2.71330
C          2.15430       -0.12440        1.48220
H          0.80530        1.93990        0.05360
H         -0.66560        1.61420       -0.89420
H         -0.74080        1.62630        0.88600
H          0.09100        0.25540        3.16510
H         -1.02530       -0.94440        2.42320
H          0.84110       -2.53960        3.48560
H         -0.14600       -2.58650        0.99370
H          1.62210       -2.61240        0.67130
H          2.54750       -0.50590        3.63900
H          3.20710       -1.75240        2.57180
H          2.85840       -0.31200        0.66660
H          2.21380        0.93490        1.74590
