22
gdb 15260	2.40533	1.49008	1.10476	1.326	78.7	-0.2524	0.0749	0.3273	1194.1178	0.19889	-350.190551	-350.180551	-350.179607	-350.225768	35.957
C         -0.61010        0.49150       -2.55890
C         -0.39400       -0.70010       -1.61810
C         -1.67500       -1.13710       -0.93310
C         -2.62250       -2.17440       -1.50430
C         -2.40090       -2.87310       -2.83120
C         -1.82500       -2.48050       -0.24990
C         -0.70100       -3.48240       -0.21280
O          0.23340       -3.04960        0.77320
H          0.33070        0.81180       -3.01800
H         -1.30930        0.24090       -3.36380
H         -1.02520        1.34970       -2.01850
H          0.04940       -1.52730       -2.18160
H          0.34220       -0.43760       -0.84880
H         -2.16450       -0.31540       -0.41340
H         -3.67520       -1.97580       -1.31640
H         -1.34500       -3.03590       -3.05900
H         -2.89360       -3.85200       -2.84570
H         -2.82260       -2.28210       -3.65190
H         -2.38810       -2.46790        0.67980
H         -1.10400       -4.47630        0.04120
H         -0.21580       -3.57580       -1.19410
H          0.91520       -3.72390        0.85160
