16
gdb 12899	3.34934	1.81596	1.50087	2.1259	71.38	-0.2303	0.0478	0.2781	894.3025	0.12876	-346.52595	-346.518232	-346.517288	-346.557644	29.217
C         -0.00200        1.56740        0.00080
C          0.00030        0.06920        0.05290
C         -1.23410       -0.83430        0.07940
O         -0.57500       -1.77520        0.97370
C          0.57040       -0.93870        1.01710
C          1.20510       -0.79080       -0.35520
C          1.15530       -1.81060       -1.36000
C          1.10560       -2.65860       -2.21200
H          0.98220        1.97260        0.25550
H         -0.25780        1.92930       -1.00200
H         -0.72920        1.98690        0.70500
H         -2.09260       -0.37240        0.57970
H         -1.54390       -1.30080       -0.86130
H          1.11870       -0.86240        1.95000
H          2.12990       -0.21740       -0.32240
H          1.06870       -3.41690       -2.95410
