16
gdb 19201	2.80574	2.79687	2.72451	1.3296	67.46	-0.2278	-0.0058	0.222	678.4632	0.133565	-346.597731	-346.592062	-346.591117	-346.626962	24.216
C          0.01000        1.52320        0.01040
O          1.33440        2.02260       -0.00020
C          2.32810        0.94090       -0.01570
C          2.07350        0.10270        1.22210
C          0.84550       -0.41290        1.23450
C          0.03620       -0.05310        0.00200
C          0.82080       -0.40000       -1.25010
C          2.04890        0.11550       -1.25660
H         -0.50670        1.88040        0.91030
H         -0.52440        1.88960       -0.87540
H          3.29560        1.44030       -0.02270
H          2.80510        0.01710        2.01600
H          0.40770       -0.97220        2.05270
H         -0.97630       -0.45700        0.00990
H          0.36680       -0.95090       -2.06510
H          2.76450        0.03810       -2.06580
