16
gdb 14686	16.21454	0.51818	0.50689	1.5595	88.79	-0.2276	-0.0013	0.2263	2119.2297	0.128051	-346.560725	-346.550838	-346.549893	-346.598949	32.439
C          0.00690        1.48430        0.00970
C          0.01320        0.03270        0.00190
C          0.01930       -1.17770       -0.00470
C          0.02650       -2.53790       -0.01200
C          0.03380       -3.74880       -0.01860
C          0.02200       -5.20190       -0.02620
C         -1.39760       -5.78420       -0.01550
O         -1.25950       -7.19410       -0.02450
H          1.02700        1.88500        0.00200
H         -0.51350        1.88440       -0.86800
H         -0.49640        1.87490        0.90150
H          0.54530       -5.58390       -0.91200
H          0.56250       -5.59340        0.84490
H         -1.93030       -5.43030        0.87950
H         -1.94760       -5.42070       -0.89600
H         -2.13830       -7.58420       -0.01760
