17
gdb 9835	3.88999	1.55785	1.23706	1.9871	65.89	-0.2259	0.0165	0.2425	1005.0251	0.141167	-401.009617	-401.000862	-400.999918	-401.043071	31.365
C         -0.07820        1.35580       -0.00130
O          0.00690       -0.07370       -0.03570
C          0.60100       -0.58550       -1.13040
O          1.02440        0.09090       -2.03840
C          0.62310       -2.08160       -1.10430
N          0.28710       -2.69160        0.15950
C          0.26480       -2.72070       -2.45180
C          1.68390       -2.72680       -1.95920
H          0.91920        1.80090       -0.03530
H         -0.65700        1.72920       -0.85000
H         -0.57370        1.60050        0.93830
H         -0.65080       -2.42170        0.43980
H          0.29420       -3.70210        0.06740
H         -0.30320       -3.64380       -2.40270
H          0.01820       -2.06170       -3.27590
H          2.38920       -2.06430       -2.44540
H          2.10020       -3.65650       -1.58550
