17
gdb 19990	3.56461	1.42889	1.14687	4.139	73.56	-0.2698	0.0315	0.3013	1057.4505	0.142807	-326.716597	-326.708884	-326.707939	-326.749172	28.664
N         -0.10460       -1.15530        0.03570
C         -0.06080        0.00130        0.03180
C         -0.00080        1.43510        0.02640
C          0.50030        2.16780        1.26490
C          1.35510        2.14340        0.03400
C          2.62970        1.36660       -0.01310
C          3.46280        1.35370       -1.27090
C          3.95230        2.09410       -0.05180
H         -0.79880        1.90600       -0.53740
H         -0.01750        3.08040        1.53630
H          0.80660        1.55270        2.10350
H          1.36610        3.05700       -0.55510
H          2.60830        0.43970        0.55250
H          3.95290        0.42780       -1.54870
H          3.11480        1.94130       -2.11420
H          3.93390        3.17880       -0.07540
H          4.78080        1.67800        0.51020
