20
gdb 9338	7.68889	0.73334	0.6836	1.4617	72.92	-0.2453	-0.01	0.2353	1680.1526	0.173579	-386.156382	-386.146039	-386.145095	-386.193304	34.518
C          0.14200        1.50440        0.00760
C         -0.05020       -0.01010        0.00210
C         -1.51200       -0.43930        0.01390
O         -2.41690        0.36620        0.02710
C         -1.77500       -1.93720        0.00840
C         -3.25530       -2.28690        0.02060
O         -3.36580       -3.69440        0.01420
C         -4.70230       -4.13440        0.02450
H          1.20540        1.75900       -0.00080
H         -0.33100        1.96060       -0.86570
H         -0.31510        1.95220        0.89360
H          0.42660       -0.46860       -0.87530
H          0.44300       -0.47690        0.86600
H         -1.29190       -2.38240       -0.87110
H         -1.27540       -2.39170        0.87380
H         -3.74150       -1.85780        0.91050
H         -3.75830       -1.84850       -0.85540
H         -5.23960       -3.79050        0.92270
H         -5.25650       -3.78110       -0.85960
H         -4.68810       -5.22710        0.01860
