13
gdb 7044	7.44734	0.87925	0.79029	6.6883	68.27	-0.2566	-0.0558	0.2008	1367.9699	0.093184	-398.620724	-398.611823	-398.610879	-398.65693	28.543
C          0.08850        1.47750        0.02620
C          0.02720        0.02840       -0.05440
C         -0.03650       -1.17370       -0.12460
C         -0.16820       -2.61580       -0.22350
O         -1.19190       -3.17820       -0.51830
N          1.04190       -3.27120        0.06610
C          1.29380       -4.64080        0.07150
O          0.51090       -5.51490       -0.17360
H          0.82290        1.87710       -0.68120
H         -0.88350        1.92510       -0.20420
H          0.38190        1.80070        1.03070
H          1.82100       -2.67170        0.29810
H          2.35360       -4.82590        0.34250
