19
gdb 17705	5.91961	1.46359	1.43035	1.6232	76.01	-0.2255	0.083	0.3085	966.4694	0.165524	-327.834368	-327.827056	-327.826112	-327.865432	28.792
C         -0.21550        1.61360       -0.07040
C         -0.03970        0.10600       -0.01170
C          1.20580       -0.54660       -0.62610
C          2.14340       -0.18880        0.56780
C          2.54130       -1.66190        0.66010
C          2.96350       -2.29170        1.97230
N          1.05900       -1.78960        0.29270
C          0.73520       -0.53140        1.15100
H          0.71360        2.14010        0.17180
H         -0.52940        1.93320       -1.07000
H         -0.98230        1.94680        0.63720
H         -0.96620       -0.42830       -0.25200
H          1.49080       -0.67380       -1.67330
H          2.74130        0.71700        0.71720
H          3.17520       -2.02310       -0.16080
H          2.35930       -1.93620        2.81240
H          2.86420       -3.38100        1.92150
H          4.01170       -2.05930        2.19020
H          0.44410       -0.62910        2.19810
