11
gdb 21504	5.3675	1.65886	1.26722	2.8504	52.41	-0.2691	-0.0582	0.2109	853.8561	0.073218	-430.744395	-430.737672	-430.736728	-430.776036	23.418
N         -0.07470        1.31280        0.00820
C          0.05500       -0.03910        0.00140
O          1.10800       -0.63660       -0.01040
C         -1.26430       -0.76650        0.00980
N         -2.41090       -0.13520        0.02140
O         -3.35230       -1.15780        0.02550
C         -2.65120       -2.29920        0.01570
N         -1.36890       -2.13900        0.00580
H          0.76110        1.87280        0.00210
H         -0.97870        1.75460        0.01670
H         -3.21530       -3.22010        0.01710
