16
gdb 18245	4.68652	1.48873	1.22307	1.8546	66.01	-0.2328	0.0122	0.245	972.9696	0.130444	-383.718769	-383.711439	-383.710495	-383.750512	27.332
O          0.01960        1.41290        0.02560
C         -0.00320       -0.00150       -0.01760
C         -1.41640       -0.48110        0.01780
C         -2.53340        0.25130       -0.03590
C         -3.78570       -0.60020        0.02580
C         -3.23540       -2.02170        0.05480
O         -2.48150       -2.39050       -1.10260
C         -1.76560       -1.93660        0.07010
H          0.93090        1.70090       -0.07640
H          0.48580       -0.38490       -0.93060
H          0.55070       -0.43950        0.83280
H         -2.55420        1.32770       -0.14710
H         -4.38190       -0.39070        0.92370
H         -4.44340       -0.43850       -0.83700
H         -3.79170       -2.82880        0.52400
H         -1.11420       -2.67750        0.52640
