17
gdb 17709	6.06223	1.50518	1.46803	2.2419	68.58	-0.2099	0.076	0.2859	900.2144	0.141992	-363.752163	-363.745221	-363.744276	-363.782852	27.454
C          0.00370        1.52750       -0.21890
N          0.02640        0.07940       -0.04620
C         -1.08640       -0.50100        0.76670
C         -0.20130       -1.70650        1.20480
C         -0.57800       -1.53070        2.67570
O          0.41890       -1.97140        3.56950
C         -0.51170       -0.07560        2.17030
C          0.68500       -0.42160        1.19890
H          0.98480        1.86120       -0.57300
H         -0.73210        1.78680       -0.98770
H         -0.24150        2.09540        0.69490
H         -2.12630       -0.51680        0.43640
H         -0.02040       -2.61260        0.62920
H         -1.57400       -1.89500        2.96600
H          0.17320       -1.69450        4.45760
H         -0.69170        0.84660        2.72250
H          1.75520       -0.34040        1.38510
