15
gdb 15977	2.88835	2.07754	1.38501	1.0784	61.83	-0.2476	-0.0403	0.2073	878.7395	0.117729	-399.748037	-399.740541	-399.739597	-399.780503	26.661
O         -0.63000        1.36180        0.77080
C          0.19290        0.94090       -0.00240
C          1.51520        1.63240       -0.25190
O          2.36450        0.92010       -1.16500
C          2.43080        2.03810       -2.08790
C          1.45670        2.82830       -1.22150
C          0.30940        3.69660       -1.55260
N          1.53180        4.23970       -0.92050
H          0.03050        0.03210       -0.62330
H          2.00620        1.85170        0.70710
H          3.43770        2.46730       -2.14470
H          2.08750        1.75970       -3.09070
H          0.14730        4.01580       -2.57860
H         -0.58970        3.59390       -0.95120
H          1.37800        4.40750        0.07130
