14
gdb 9982	2.70931	1.5064	1.00742	1.6385	64.71	-0.2622	-0.056	0.2061	1087.3441	0.102725	-382.519529	-382.510762	-382.509818	-382.553892	29.664
O         -0.36010        0.15510        0.64560
C         -0.04020        1.02000       -0.12660
C          1.30650        1.74130       -0.05590
C          1.52070        2.76350       -1.18320
C          1.52550        2.13830       -2.49960
C          1.52280        1.58830       -3.56830
C          1.45160        2.36420        1.33240
O          1.79550        3.50080        1.51880
H         -0.72050        1.37030       -0.93180
H          2.06520        0.94700       -0.10500
H          0.73630        3.52880       -1.13060
H          2.45970        3.29630       -1.00400
H          1.52550        1.12040       -4.52180
H          1.20690        1.67130        2.16230
