21
gdb 17132	5.48175	1.12728	1.05478	0.9486	79.83	-0.2288	0.0822	0.311	1206.959	0.188947	-329.087525	-329.079249	-329.078305	-329.120444	31.473
C         -0.29200        1.47160       -0.07520
C         -0.00540       -0.02720       -0.04720
C          1.26170       -0.46060       -0.84560
C          2.04760       -0.53650        0.48890
C          0.69720       -0.52940        1.25080
N          2.87970       -1.71020        0.67440
C          4.28140       -1.57180        0.28540
C          3.89470       -1.61890        1.72160
H          0.59790        2.05710        0.18360
H         -0.61990        1.79250       -1.07030
H         -1.08010        1.73640        0.63870
H         -0.91500       -0.57450       -0.31010
H          1.15650       -1.45790       -1.28010
H          1.63160        0.22640       -1.61200
H          2.61290        0.39360        0.67160
H          0.62140        0.10330        2.13980
H          0.40470       -1.54950        1.51200
H          4.72680       -2.43740       -0.19630
H          4.60820       -0.61110       -0.11020
H          3.96310       -0.68970        2.28560
H          4.05260       -2.51960        2.30780
