14
gdb 12310	3.09347	2.30483	1.37676	6.9042	59.59	-0.2441	-0.0345	0.2096	843.8268	0.110021	-415.922024	-415.915103	-415.914159	-415.953385	25.586
O         -0.01700       -0.03510       -0.13990
C         -0.02100        1.16830       -0.02570
N         -1.16770        1.90970        0.09200
C         -1.20670        3.36140        0.02990
C         -0.02640        3.91880        0.81380
N          1.19500        3.29880        0.32710
C          1.30890        1.96800        0.02000
O          2.36410        1.43040       -0.22230
H         -2.01990        1.38600       -0.05140
H         -1.16730        3.72450       -1.00740
H         -2.14360        3.71000        0.47310
H          0.04070        4.99980        0.66370
H         -0.17490        3.73480        1.88790
H          2.07700        3.77360        0.46050
