18
gdb 17360	3.90017	1.57451	1.48941	2.7382	71.31	-0.2308	-0.0083	0.2224	938.4086	0.153214	-347.795955	-347.788073	-347.787129	-347.828733	29.257
C          0.08670        1.16230        0.74070
C          0.07620        0.02680       -0.26830
O          1.05260       -0.24910       -0.93130
C         -1.21150       -0.76810       -0.36270
C         -1.34560       -1.84580       -1.48250
C         -1.50660       -2.92870       -0.40600
C         -0.30830       -2.94960        0.49830
C         -1.35620       -1.88740        0.70250
H          1.09550        1.56410        0.84290
H         -0.58920        1.95870        0.40680
H         -0.28170        0.82050        1.71400
H         -2.07150       -0.09260       -0.33220
H         -2.24380       -1.69520       -2.08470
H         -0.47910       -1.94480       -2.14000
H         -2.20120       -3.75810       -0.45390
H         -0.30720       -3.73180        1.25060
H          0.67480       -2.69080        0.11480
H         -1.90240       -1.78600        1.63240
