16
gdb 15548	3.14891	1.96428	1.41252	2.5409	65.62	-0.2503	-0.0184	0.2319	882.4652	0.130408	-383.756148	-383.748573	-383.747629	-383.788552	27.803
O          0.12760        1.44060       -0.17430
C          0.13350        0.02290        0.00680
C          0.54380       -0.37030        1.40340
C         -0.46080       -0.90700        2.09490
C         -1.72380       -1.04840        1.28510
C         -1.28910       -0.63560       -0.13850
C         -2.23400        0.31100       -0.84980
O         -3.21760        0.80060       -0.35420
H         -0.29080        1.82980        0.60270
H          0.81840       -0.34020       -0.76510
H          1.53570       -0.15100        1.78190
H         -0.40610       -1.21260        3.13460
H         -2.11780       -2.07030        1.31010
H         -2.52670       -0.39990        1.65600
H         -1.18360       -1.52030       -0.77850
H         -1.94920        0.54040       -1.89870
