13
gdb 21932	5.22996	1.66285	1.2716	3.6849	61.94	-0.2505	-0.0849	0.1656	884.0325	0.096723	-394.782809	-394.776097	-394.775153	-394.814262	23.986
O          0.36770        0.89650       -0.77870
C         -0.01390        0.12280        0.32340
C         -1.41800       -0.42120        0.21290
N         -1.88440       -1.17860        1.21880
C         -3.11950       -1.61880        1.05230
C         -3.84820       -1.29670       -0.09820
N         -3.32890       -0.54210       -1.05800
N         -2.08570       -0.09760       -0.89270
H         -0.38960        0.90420       -1.38280
H          0.66580       -0.73350        0.45870
H          0.04500        0.70740        1.25510
H         -3.54650       -2.23760        1.83820
H         -4.86290       -1.64680       -0.25600
