16
gdb 20130	4.59992	1.3168	1.15053	0.8051	60.69	-0.2627	0.0739	0.3366	1034.129	0.129447	-420.81942	-420.811669	-420.810725	-420.852086	28.125
O          0.07370        1.62760       -0.13160
C         -0.00980        0.22870        0.04860
C          0.48260       -0.50430       -1.19130
C          0.27260        0.04200       -2.53340
O          1.54730        0.17140       -1.87960
C          0.78310       -0.21000        1.26840
C          0.14070       -0.40910        2.56880
O          0.49620       -1.52660        1.74670
H          0.89270        1.77620       -0.62700
H         -1.06400       -0.02470        0.21610
H          0.62620       -1.57710       -1.07090
H          0.26390       -0.62700       -3.39120
H         -0.27970        0.97160       -2.64640
H          1.84440        0.04410        1.24220
H          0.72170       -0.30080        3.48290
H         -0.92790       -0.22470        2.67040
