17
gdb 21178	6.74636	1.24117	1.06722	2.5033	73.23	-0.184	0.0295	0.2136	1114.0444	0.143577	-360.050309	-360.042015	-360.04107	-360.083722	29.312
C         -0.04020        1.44450        0.12450
N          0.03040        0.02470       -0.17760
C         -1.15300       -0.71290       -0.07480
C         -1.29180       -2.09140       -0.03340
N         -2.62980       -2.35060       -0.00360
C         -3.27120       -3.64030        0.11600
N         -3.36860       -1.23430       -0.01670
C         -2.48480       -0.23430       -0.05980
H          0.96330        1.87240        0.06180
H         -0.66220        1.95180       -0.62080
H         -0.45680        1.66960        1.12010
H          0.80780       -0.42680        0.28280
H         -0.55980       -2.88330       -0.03110
H         -3.19180       -4.03600        1.13520
H         -4.32360       -3.50850       -0.13430
H         -2.81860       -4.35490       -0.57740
H         -2.83350        0.78640       -0.08910
