18
gdb 18736	2.90794	2.20933	1.52321	2.811	71.37	-0.236	-0.0201	0.2159	880.4691	0.153581	-347.802054	-347.794551	-347.793607	-347.834051	28.69
C          0.27890        1.58200       -0.13650
C          0.04810        0.08640        0.02550
C          0.76030       -0.90540       -0.94850
C          1.30950       -1.72200        0.25310
C          2.74380       -1.32400        0.69360
C          2.12300       -0.22220        1.57630
O          2.58370        0.63610        2.27310
C          0.69040       -0.66090        1.24400
H          1.34520        1.82880       -0.14560
H         -0.15700        1.93930       -1.07600
H         -0.18040        2.14510        0.68280
H         -1.02750       -0.11550        0.03280
H          0.08100       -1.45320       -1.60530
H          1.53940       -0.45300       -1.57090
H          1.05870       -2.78040        0.29680
H          3.23210       -2.08180        1.31730
H          3.45220       -1.00380       -0.07630
H          0.04390       -0.88260        2.09490
