15
gdb 13228	6.25488	1.02621	0.99728	2.821	70.49	-0.248	0.02	0.2681	1184.7978	0.117692	-362.615068	-362.607097	-362.606153	-362.648918	28.158
C         -1.55310       -0.25760       -0.75470
C         -0.62910        0.36370       -0.30390
C          0.50230        1.10550        0.24920
N          0.70030        2.38060       -0.45100
C          1.77090        2.54950       -1.07580
C          2.35770        3.67100       -1.90550
C          3.55240        2.70710       -2.05610
O          2.86570        1.71390       -1.23390
H         -2.37170       -0.80440       -1.15210
H          0.29410        1.33550        1.30200
H          1.39690        0.46860        0.23050
H          1.80570        3.89880       -2.81850
H          2.55120        4.59370       -1.35640
H          3.73890        2.31860       -3.05990
H          4.48970        3.01820       -1.58910
