11
gdb 21831	6.36953	1.49052	1.20787	5.1551	54.93	-0.2614	-0.0356	0.2258	887.9354	0.074337	-426.899276	-426.89281	-426.891866	-426.931027	22.169
O         -0.32890        0.03440        0.00720
C         -0.06830        1.20670        0.00890
N          1.19730        1.76560       -0.00200
C          2.41650        1.11560       -0.01530
N          3.55220        1.81070       -0.01620
N          4.43600        0.81700       -0.03140
N          3.91230       -0.39310       -0.03910
N          2.61200       -0.22750       -0.02950
H         -0.83140        2.00960        0.01940
H          1.25850        2.77290        0.00330
H          5.43240        0.97530       -0.03640
