18
gdb 8121	3.97899	1.68503	1.41618	2.8666	71.39	-0.2387	-0.0153	0.2234	927.0691	0.153857	-347.83453	-347.827105	-347.82616	-347.866012	29.049
C         -0.20650        1.55780        0.14740
C          0.07390        0.08150        0.00190
C         -0.76990       -0.92170        0.75360
C          0.68200       -0.74200        1.13230
C          1.66270       -1.74420        0.56170
C          1.44590       -1.69480       -0.95970
O          1.83000       -2.51740       -1.74850
C          0.66090       -0.42050       -1.30710
H          0.69000        2.15490       -0.05830
H         -0.98900        1.88670       -0.54660
H         -0.54260        1.79800        1.16130
H         -1.51690       -0.53030        1.43590
H         -1.06710       -1.84190        0.25670
H          0.90830       -0.26990        2.08210
H          2.70180       -1.45190        0.76390
H          1.54350       -2.77000        0.92420
H         -0.07270       -0.63130       -2.09160
H          1.37120        0.30820       -1.72260
