22
gdb 13448	3.22115	1.09605	0.98714	1.3331	78.56	-0.2591	0.078	0.3371	1303.5571	0.198869	-350.191273	-350.181242	-350.180297	-350.226299	36.006
C         -0.27620        1.02590       -1.69100
C         -0.02180       -0.19350       -0.82910
C          1.36620       -0.61520       -0.38960
C          2.62080        0.14730       -0.76370
C          0.36990       -0.11120        0.63690
C          0.54460        1.19700        1.38110
C         -0.76640        1.70610        1.97220
O         -0.48740        2.90080        2.68780
H          0.36930        1.86960       -1.43640
H         -0.10840        0.79610       -2.74950
H         -1.31290        1.36690       -1.59020
H         -0.68780       -1.01880       -1.07110
H          1.52530       -1.69110       -0.36900
H          2.47030        1.22880       -0.79080
H          3.42520       -0.05110       -0.04660
H          2.97980       -0.15750       -1.75320
H         -0.06290       -0.88920        1.26370
H          1.26140        1.06810        2.20200
H          0.95490        1.98080        0.73830
H         -1.49460        1.88370        1.16470
H         -1.19760        0.93660        2.63400
H         -1.31150        3.22790        3.05970
