17
gdb 13120	3.50334	1.55206	1.14257	3.4811	65.56	-0.2513	0.0295	0.2808	1031.6218	0.141953	-401.004741	-400.996311	-400.995367	-401.038222	29.499
C          0.39190        0.77170        0.45430
O         -0.27160        0.37220       -0.73450
C          0.48490       -0.45840       -1.57820
C          0.49460       -1.93140       -1.15190
C          1.19320       -2.92700       -2.12980
N          2.09200       -3.27630       -1.02870
C          1.55080       -2.40970       -0.11440
O          1.82790       -2.15630        1.02940
H          0.64990       -0.07930        1.09500
H          1.31550        1.32530        0.22340
H         -0.29320        1.43810        0.98390
H          0.01230       -0.39350       -2.56580
H          1.51900       -0.08780       -1.68170
H         -0.51950       -2.23140       -0.87490
H          0.56940       -3.75270       -2.48480
H          1.69400       -2.45400       -2.98210
H          2.87300       -3.91200       -0.96630
