19
gdb 17660	3.97704	1.4978	1.45091	2.6046	71.3	-0.2335	0.0757	0.3093	962.3983	0.164964	-365.002234	-364.994122	-364.993178	-365.036266	30.062
C          0.10650        1.59890       -0.42160
C          0.03740        0.10340       -0.10420
C          1.09630       -0.72910       -0.87270
O          1.92150       -0.84600        0.30370
C          0.88190       -0.29190        1.13490
N         -1.27270       -0.53990       -0.10460
C         -2.45730        0.16180        0.37440
C         -2.29640       -0.16210       -1.07120
H          1.14900        1.92790       -0.38410
H         -0.27160        1.82540       -1.42370
H         -0.45180        2.19950        0.30370
H          0.71480       -1.70030       -1.20990
H          1.62010       -0.22730       -1.69500
H          1.25050        0.52650        1.76470
H          0.39790       -1.05400        1.75720
H         -3.12120       -0.42470        1.00350
H         -2.38010        1.20970        0.65450
H         -2.11260        0.67230       -1.74390
H         -2.84060       -0.98960       -1.51820
