16
gdb 13173	2.95642	1.85092	1.43205	2.6401	64.03	-0.2624	0.0264	0.2888	908.8842	0.13157	-379.905476	-379.897481	-379.896536	-379.938329	28.457
N          0.15900        1.48290        0.02360
C         -0.02000        0.03370       -0.01210
C          0.61880       -0.61330       -1.18110
N          1.11450       -1.09230       -2.10970
C          0.52410       -0.54240        1.30230
C          0.75310       -2.06300        1.41910
C          2.24170       -1.68230        1.56160
O          1.93350       -0.27100        1.43570
H          1.14950        1.67970        0.14410
H         -0.12580        1.90050       -0.85660
H         -1.09390       -0.18870       -0.06060
H         -0.04840       -0.07960        2.11490
H          0.29930       -2.52880        2.29410
H          0.50590       -2.64190        0.52820
H          2.69980       -1.90610        2.53110
H          2.90140       -2.02430        0.75810
