17
gdb 3386	5.57144	1.87779	1.80665	1.5961	63.72	-0.232	0.0791	0.3111	785.392	0.1487	-309.673226	-309.666359	-309.665415	-309.7042	25.642
C         -0.00530        1.45950        0.21400
C          0.00840       -0.01610       -0.20280
C         -1.36730       -0.64410       -0.12920
C         -1.66380       -2.13560       -0.14550
C         -0.66280       -2.88300        0.72890
O         -0.88730       -1.97350        1.84000
C         -1.91610       -1.30750        1.09850
H          0.99590        1.89710        0.15280
H         -0.66640        2.05000       -0.43040
H         -0.35860        1.57120        1.24420
H          0.39920       -0.10960       -1.22400
H          0.69180       -0.56730        0.45030
H         -2.14040       -0.09470       -0.66690
H         -2.35520       -2.59290       -0.84040
H         -0.99320       -3.89350        0.99470
H          0.38670       -2.90990        0.41320
H         -2.81810       -1.03000        1.63270
