15
gdb 21109	3.50487	1.82189	1.21713	6.032	63.45	-0.2445	0.0066	0.2512	942.6321	0.119287	-395.969822	-395.961862	-395.960918	-396.002974	27.342
C         -0.02440        1.44050        0.03030
N         -0.00900       -0.00530        0.07580
N         -0.03280       -0.71830       -1.07680
N         -0.01180       -1.97750       -0.75680
C          0.02600       -2.09320        0.59880
C          0.02760       -0.83310        1.15030
C          0.06100       -0.36170        2.56650
O          0.07780       -1.50580        3.39570
H          0.87610        1.85650        0.49290
H         -0.05620        1.72780       -1.02060
H         -0.90610        1.83890        0.54210
H          0.04860       -3.04650        1.09860
H          0.95100        0.27060        2.73050
H         -0.81790        0.27430        2.77120
H          0.11280       -1.21400        4.31110
