15
gdb 5191	5.79812	1.17481	1.06675	3.7926	68.67	-0.2115	-0.0109	0.2007	1074.1275	0.119557	-362.707475	-362.700008	-362.699063	-362.740998	26.694
O          0.10660       -0.18180       -0.19110
C          0.06970        1.02110       -0.16580
C          1.28550        1.92650       -0.04670
C          1.30670        2.93800       -1.15970
C          1.71350        2.70820       -2.45870
N          1.53460        3.86620       -3.16850
C          1.01400        4.83800       -2.35380
C          0.85880        4.29110       -1.10220
H         -0.89430        1.57320       -0.25220
H          1.22170        2.44390        0.91980
H          2.17880        1.29570       -0.03210
H          2.11660        1.82270       -2.92390
H          1.76150        3.98680       -4.13990
H          0.80840        5.82750       -2.72860
H          0.47540        4.80050       -0.23070
