15
gdb 10569	2.56952	1.91785	1.32181	4.3526	72.83	-0.2629	0.009	0.2719	953.437	0.116998	-325.49688	-325.488595	-325.487651	-325.529284	30.394
C         -0.09370        1.52040       -0.03700
C          0.02610        0.01640       -0.00770
C          1.32620       -0.67610       -0.23390
C          0.72250       -0.68760        1.18230
C          1.34880        0.09660        2.21210
C          1.87200        0.75420        3.07110
C          0.13140       -1.92950        1.62300
N         -0.35300       -2.92590        1.95480
H          0.79850        1.99980        0.37270
H         -0.22580        1.86470       -1.06790
H         -0.95580        1.85730        0.54640
H         -0.85300       -0.52150       -0.34970
H          1.34060       -1.62260       -0.76090
H          2.21860       -0.07050       -0.34340
H          2.33420        1.32740        3.83650
