11
gdb 4620	5.85296	1.63904	1.28046	3.0254	57.79	-0.2329	-0.0904	0.1425	842.8488	0.072562	-434.576241	-434.570012	-434.569068	-434.606666	23.296
O         -0.01510        1.37250        0.00840
C         -0.01940        0.02010        0.00110
C         -1.17400       -0.68390        0.00410
O         -1.16030       -2.03680       -0.00330
C          0.02770       -2.75120       -0.01420
O          0.00400       -3.95200       -0.02060
C          1.22190       -1.89960       -0.01660
N          1.19680       -0.60780       -0.00950
H          0.91200        1.64330        0.00440
H         -2.16820       -0.25980        0.01220
H          2.17830       -2.41480       -0.02500
