15
gdb 10044	3.26009	1.36195	1.0058	2.9014	67.83	-0.2761	0.0081	0.2841	1119.3498	0.115959	-362.625466	-362.616459	-362.615515	-362.659519	30.979
C          0.17220        1.44200       -0.11040
O         -0.13120        0.06740        0.06190
C          0.58990       -0.55700        1.08980
C         -0.04060       -1.94370        1.33820
C         -1.38310       -1.84150        1.89140
C         -2.48240       -1.75190        2.36670
C          2.02320       -0.70040        0.73550
N          3.13870       -0.80290        0.45240
H          1.22090        1.59200       -0.39970
H         -0.47590        1.80570       -0.90930
H         -0.03040        2.01250        0.80740
H          0.53830        0.03160        2.01940
H         -0.05470       -2.48080        0.38340
H          0.60940       -2.50810        2.01610
H         -3.45850       -1.68070        2.77890
