19
gdb 5877	3.84443	1.11797	1.08117	3.6017	69.29	-0.2473	0.0343	0.2817	1179.8306	0.163226	-402.234896	-402.225311	-402.224366	-402.26945	34.713
C         -0.06590        1.52250        0.07030
C          0.02000       -0.00260       -0.02930
C          0.94040       -0.57600        1.04830
O         -1.27070       -0.59070        0.21790
C          0.47820       -0.41210       -1.44540
N          0.38250       -1.84560       -1.63050
C          1.35780       -2.59620       -2.20280
O          2.39330       -2.16660       -2.66790
H          0.91290        1.98510       -0.08990
H         -0.75040        1.92800       -0.68490
H         -0.43070        1.81690        1.05810
H          0.56020       -0.31760        2.03990
H          0.99130       -1.66450        0.97250
H          1.95280       -0.17630        0.94300
H         -1.92150       -0.10390       -0.30020
H         -0.14690        0.11150       -2.18460
H          1.51510       -0.12410       -1.63310
H         -0.42810       -2.29490       -1.23200
H          1.09730       -3.67360       -2.20220
