16
gdb 18325	3.41371	2.18105	1.59892	3.8362	63.53	-0.2323	-0.0314	0.2008	813.2931	0.132064	-383.746046	-383.739404	-383.73846	-383.777127	25.162
O         -0.07440        0.07890       -0.26110
C         -0.02940        1.26510       -0.06950
C         -1.19020        2.18340        0.31980
C         -0.83870        3.53360       -0.33750
C          0.70400        3.60420       -0.35200
C          1.38450        3.82860        1.01360
O          1.75160        2.43250        1.11520
C          1.21820        2.15150       -0.20440
H         -2.14830        1.76100        0.01370
H         -1.19840        2.26520        1.41400
H         -1.21190        3.54850       -1.36740
H         -1.28310        4.39000        0.17800
H          1.09640        4.20290       -1.17370
H          2.27130        4.47330        0.99720
H          0.72880        4.14480        1.83490
H          1.96890        1.74200       -0.88530
