19
gdb 13426	3.48614	1.28461	1.11587	4.166	75.57	-0.2791	0.0396	0.3188	1129.0615	0.164831	-327.936291	-327.927234	-327.92629	-327.970262	32.548
C         -0.32370        1.06200       -1.59220
C         -0.02440       -0.19530       -0.80210
C          1.37900       -0.62250       -0.41760
C          2.61980        0.16310       -0.79000
C          0.40020       -0.17850        0.65220
C          0.59290        1.11470        1.43300
C         -0.66890        1.62390        1.97540
N         -1.67130        2.01190        2.39990
H          0.35830        1.88540       -1.36610
H         -0.24750        0.86730       -2.66730
H         -1.34030        1.41430       -1.38850
H         -0.69310       -1.01410       -1.05550
H          1.54740       -1.69660       -0.43750
H          2.45950        1.24390       -0.80080
H          3.43730       -0.04090       -0.08960
H          2.96590       -0.11930       -1.79010
H         -0.01370       -0.96950        1.27090
H          1.28330        0.95230        2.26970
H          1.03760        1.90040        0.81650
