16
gdb 18386	3.48314	2.27474	1.53179	2.3932	64.27	-0.2409	0.0212	0.2621	811.7019	0.133945	-379.891637	-379.88517	-379.884225	-379.922143	25.17
C          0.03450        1.51510       -0.03450
O          1.40190        1.90500       -0.24910
C          2.34330        1.61780        0.69260
N          2.34650        0.93400        1.75300
C          1.20590        0.17470        2.26360
C          0.48320       -0.66310        1.21930
N         -0.97970       -0.49470        1.12030
C         -0.11060        0.01670        0.04320
H         -0.35130        1.97810        0.87780
H         -0.50870        1.93560       -0.88430
H          3.26300        2.12100        0.39150
H          1.58650       -0.48160        3.05350
H          0.48550        0.84210        2.74900
H          0.88620       -1.65930        1.05350
H         -1.41550       -1.36540        0.82750
H         -0.09880       -0.51220       -0.90660
