19
gdb 2944	5.77565	1.68025	1.3991	1.7513	67.	-0.2377	0.0819	0.3196	911.0666	0.172656	-310.930659	-310.922937	-310.921993	-310.963411	27.53
C          0.01830        1.57650        0.07110
C          0.04380        0.04450        0.02610
C          0.62540       -0.52570       -1.26870
C          0.67930       -2.06190       -1.33320
C          0.78300       -2.32430       -2.83940
O          0.14270       -1.22480       -3.49020
C         -0.18460       -0.21820       -2.53780
H          1.02460        1.99240       -0.05120
H         -0.61010        1.99280       -0.72320
H         -0.37610        1.93690        1.02610
H          0.62800       -0.33290        0.87480
H         -0.97450       -0.34520        0.16010
H          1.64320       -0.13430       -1.40590
H          1.51210       -2.49060       -0.76960
H         -0.25050       -2.48240       -0.93120
H          1.83310       -2.37400       -3.16330
H          0.29430       -3.25660       -3.14590
H         -1.26520       -0.24300       -2.31590
H          0.04480        0.75920       -2.97540
