15
gdb 12756	3.30374	1.79277	1.50174	3.2109	65.26	-0.2732	0.0257	0.2989	868.0682	0.119046	-362.64421	-362.636969	-362.636025	-362.675594	27.446
O         -0.01420        1.41110        0.04350
C         -0.01790        0.03530        0.02980
C         -0.33350       -0.78700       -1.18380
C         -1.21130       -0.90670        0.04470
C         -0.52710       -1.80980        1.07480
C          0.69240       -0.81210        1.11190
C          2.02050       -1.32330        0.80490
N          3.06650       -1.73150        0.52670
H          0.67640        1.72500       -0.55150
H         -0.77270       -0.21140       -1.99220
H          0.30450       -1.60900       -1.50010
H         -2.26630       -0.66800        0.01660
H         -1.03470       -1.85760        2.03900
H         -0.29210       -2.82310        0.73970
H          0.71770       -0.26800        2.05870
