22
gdb 6039	2.95038	1.46055	1.27193	2.5002	77.94	-0.2361	-0.0076	0.2284	1112.0773	0.196663	-350.237857	-350.227416	-350.226472	-350.273198	37.888
C          0.12950        1.55580       -0.05260
C         -0.02840        0.03160       -0.06300
C         -1.47590       -0.50900        0.03210
C         -2.15600       -0.03670        1.34010
C         -2.31820       -0.06210       -1.17870
C         -1.40760       -2.05350        0.11100
C         -2.66570       -2.85510       -0.19630
O         -0.38780       -2.62470        0.42470
H          1.18900        1.81960       -0.12880
H         -0.38320        2.03610       -0.89210
H         -0.24900        2.00540        0.87080
H          0.42490       -0.36980       -0.97760
H          0.54700       -0.40220        0.75910
H         -2.27940        1.05000        1.33710
H         -3.15170       -0.47500        1.45970
H         -1.55780       -0.31000        2.21490
H         -1.88100       -0.41010       -2.12100
H         -3.34520       -0.43330       -1.12390
H         -2.37410        1.02930       -1.22230
H         -2.83860       -2.86960       -1.27840
H         -2.52270       -3.87990        0.14860
H         -3.56020       -2.42650        0.26400
