18
gdb 7764	3.36561	1.74246	1.20212	3.6742	74.76	-0.2349	-0.0463	0.1885	1004.1947	0.154782	-347.852155	-347.844614	-347.84367	-347.88384	28.962
C         -0.00400        1.57590        0.00320
C          0.01280        0.04580       -0.02130
C          0.73270       -0.50230       -1.26410
C          0.91850       -1.99290       -1.21290
C          0.87110       -2.70440       -0.07930
C          0.67740       -2.06920        1.24240
O          0.58740       -2.72360        2.26200
C          0.64350       -0.54460        1.24950
H          1.01330        1.97970        0.06630
H         -0.46930        1.98230       -0.90120
H         -0.56460        1.95050        0.86560
H         -1.02650       -0.30910       -0.06910
H          0.18390       -0.22930       -2.17380
H          1.72030       -0.02350       -1.36610
H          1.10130       -2.50050       -2.15790
H          0.98830       -3.78360       -0.07150
H          1.68460       -0.19670        1.33510
H          0.12570       -0.21820        2.15590
