18
gdb 14559	3.07317	2.10608	1.59721	1.4853	67.57	-0.2253	0.0731	0.2984	873.6988	0.152239	-384.880737	-384.872631	-384.871687	-384.912899	30.119
C         -0.46570        1.04220       -0.03650
O          0.38790       -0.08490        0.07990
C          0.82370       -0.60290       -1.14080
C          2.02890        0.09270       -1.73900
C          0.77380       -2.10150       -1.31050
C         -0.51530       -2.62670       -0.68660
O         -1.32420       -1.68590       -1.44810
C         -0.16140       -1.19940       -2.11140
H          0.03440        1.89200       -0.52250
H         -1.37590        0.79080       -0.59330
H         -0.73520        1.33630        0.98070
H          2.88420        0.02230       -1.05970
H          2.31190       -0.35910       -2.69470
H          1.82320        1.15270       -1.91960
H          1.62870       -2.69570       -1.60640
H         -0.75680       -3.65390       -0.97890
H         -0.63310       -2.49330        0.39240
H         -0.24110       -0.95610       -3.16630
