13
gdb 1057	7.49983	1.92913	1.56793	4.8687	55.77	-0.215	0.0302	0.2452	740.2332	0.103681	-340.660061	-340.653531	-340.652587	-340.691257	22.932
O          0.04920        1.35220        0.38050
C          0.01450        0.00100       -0.04470
C         -1.40660       -0.45660       -0.01500
C         -2.59480        0.22010       -0.11350
N         -3.66180       -0.64980       -0.05650
C         -3.13040       -1.84120        0.07250
N         -1.76570       -1.78370        0.10540
H          0.90150        1.72040        0.13020
H          0.43000       -0.09920       -1.06190
H          0.62780       -0.64470        0.60920
H         -2.73320        1.28490       -0.20990
H         -3.66730       -2.77520        0.14720
H         -1.13790       -2.56260        0.21580
