15
gdb 14645	7.56283	0.66972	0.62243	4.7561	72.6	-0.26	-0.0021	0.2578	1715.9753	0.115957	-362.629996	-362.620516	-362.619571	-362.666514	30.43
C         -0.04220        1.45430        0.01040
C         -0.03890       -0.00050        0.00260
C         -0.04200       -1.20340       -0.00390
C         -0.01930       -2.65540       -0.01190
O         -1.35320       -3.15930       -0.00180
C         -1.37480       -4.56440       -0.00900
C         -2.76600       -5.02420        0.00170
N         -3.85020       -5.42040        0.00980
H          0.97990        1.84800        0.00250
H         -0.56000        1.85450       -0.86770
H         -0.54260        1.84500        0.90280
H          0.51290       -3.02530       -0.90480
H          0.52980       -3.03480        0.86660
H         -0.87660       -4.97620       -0.90280
H         -0.85980       -4.98560        0.87070
