16
gdb 5066	3.36515	1.96966	1.25815	1.2843	68.69	-0.1824	0.0411	0.2236	941.4297	0.131225	-379.943813	-379.935454	-379.93451	-379.976303	30.716
C          0.08150        1.48280        0.06960
C         -0.05620        0.00390        0.03400
C         -1.13160       -0.83220       -0.03890
N         -2.51500       -0.55250       -0.05700
C         -0.61370       -2.17570       -0.01030
N         -1.43220       -3.31020       -0.13090
C          0.73790       -2.05380        0.07710
O          1.09310       -0.73170        0.11020
H          0.86630        1.81990       -0.61620
H         -0.85560        1.95850       -0.23620
H          0.33480        1.86060        1.06850
H         -2.70550        0.44220       -0.05450
H         -2.96420       -0.96120       -0.87120
H         -2.27420       -3.20770        0.42630
H         -0.96050       -4.16480        0.13660
H          1.54620       -2.76420        0.11690
