11
gdb 69	8.31096	4.07963	2.92918	2.8354	39.16	-0.255	-0.0279	0.2271	432.1489	0.088443	-268.287661	-268.281505	-268.280561	-268.316982	20.344
C         -0.05480        1.46030       -0.17070
C          0.07110       -0.03520        0.11230
O          0.58200       -0.33320        1.40180
C         -1.27640       -0.74380        0.03050
O         -2.11860       -0.49640       -0.79160
H          0.93160        1.93090       -0.23350
H         -0.57710        1.61290       -1.11840
H         -0.62440        1.94780        0.62570
H          0.69690       -0.50070       -0.67160
H          1.45600        0.06070        1.47860
H         -1.40720       -1.53390        0.80210
