14
gdb 16051	3.81661	1.71829	1.42921	1.0595	64.98	-0.2382	0.0239	0.262	870.1191	0.105778	-382.450879	-382.443667	-382.442723	-382.482062	27.6
O          0.00220        1.39680        0.01600
C         -0.03960        0.01280        0.00040
C         -0.46130       -0.76040        1.19540
O         -1.41020        0.01620        1.92980
C         -2.36530       -0.05610        0.82960
C         -1.35810       -0.78300       -0.06300
C         -1.63940       -1.79030       -1.01890
C         -1.87960       -2.63920       -1.83830
H         -0.32160        1.66770        0.88650
H          0.74470       -0.42740       -0.60750
H          0.08330       -1.53470        1.72420
H         -3.22100       -0.67460        1.11230
H         -2.69510        0.93350        0.49740
H         -2.09080       -3.38690       -2.56200
