13
gdb 999	4.05002	3.44685	1.88426	2.452	55.05	-0.2013	0.0473	0.2485	643.5085	0.103382	-340.675814	-340.669226	-340.668282	-340.707078	23.333
C         -0.02470        1.47380       -0.00890
N          0.01660        0.02580       -0.01560
C          0.01390       -0.81560       -1.12650
C          0.06360       -2.08330       -0.62830
N          0.09830       -2.06760        0.75680
C          0.06850       -0.79790        1.06290
O          0.08440       -0.27320        2.30320
H          0.84680        1.89090       -0.52360
H         -0.93250        1.83890       -0.49960
H         -0.02080        1.81820        1.02530
H         -0.02310       -0.41970       -2.12750
H          0.07700       -3.01310       -1.17530
H          0.12100       -1.02500        2.90740
