11
gdb 21782	5.73686	1.64653	1.27935	3.738	60.1	-0.2558	-0.1066	0.1492	848.5008	0.07295	-393.584376	-393.578168	-393.577224	-393.615181	21.62
O         -0.06670       -0.01680       -0.00150
C          0.00650        1.18200        0.00770
C          1.28360        1.96260        0.00080
C          1.26080        3.35900        0.01230
N          2.38640        4.06240        0.00600
C          3.49450        3.31860       -0.01210
N          3.56990        1.98120       -0.02290
N          2.44270        1.29150       -0.01670
H         -0.90170        1.82560        0.02240
H          0.32150        3.90940        0.02650
H          4.44740        3.83930       -0.01650
