13
gdb 3383	6.34439	1.92592	1.85795	3.413	54.62	-0.238	-0.0235	0.2145	695.9656	0.101444	-344.408452	-344.402404	-344.40146	-344.43855	21.94
O         -0.03890        0.02250        0.32980
C         -0.01520        1.18470       -0.00090
C          1.22840        1.99020       -0.06370
C          1.59120        2.95150       -1.20850
C          0.36150        3.71880       -1.68090
O          0.03910        4.09820       -0.31200
C          1.24630        3.48960        0.14540
H         -0.94640        1.72670       -0.26130
H          2.10050        1.47450        0.32810
H          2.53740        2.86660       -1.72400
H          0.61880        4.60740       -2.26690
H         -0.44980        3.17240       -2.17180
H          1.81210        3.98880        0.92320
