16
gdb 11432	4.56405	1.38582	1.25216	5.1005	61.29	-0.2635	0.0152	0.2786	992.9729	0.130469	-420.911152	-420.903515	-420.902571	-420.943633	27.341
C          0.05270        1.19690        0.27020
O         -0.11300       -0.14840       -0.12130
C          0.59950       -0.50710       -1.28780
C          2.08890       -0.79740       -1.00260
O          2.16190       -2.17810       -0.62820
C          1.04840       -2.85600       -1.03060
O          0.91320       -4.02920       -0.85050
C          0.10250       -1.88160       -1.72390
H          1.09170        1.43430        0.54210
H         -0.26240        1.88890       -0.52600
H         -0.57810        1.35410        1.14760
H          0.48350        0.26710       -2.05900
H          2.70910       -0.63210       -1.89200
H          2.48640       -0.20200       -0.17810
H         -0.93280       -2.06530       -1.43780
H          0.19590       -2.02120       -2.80570
