9
gdb 763	9.69666	3.72109	2.69764	4.0976	40.94	-0.2311	-0.0346	0.1965	441.012	0.062456	-317.377404	-317.372496	-317.371552	-317.405485	17.458
N          0.00910        1.40020        0.17100
C         -0.06310        0.02070        0.04890
C         -1.11080       -0.84870        0.01770
O         -0.61130       -2.09590       -0.04030
N          0.78140       -1.97900       -0.03620
N          1.07810       -0.74900        0.01230
H          0.92080        1.75150       -0.09000
H         -0.72400        1.90040       -0.31130
H         -2.18150       -0.74450        0.02890
