16
gdb 18706	3.29968	2.27006	1.55269	2.3203	65.07	-0.2535	0.0127	0.2662	820.8879	0.131971	-383.731452	-383.724703	-383.723759	-383.762274	26.426
O         -0.17550        1.44110        0.37950
C          0.05020        0.09250       -0.02890
C          0.97690       -0.61170        0.92640
C          0.76080       -1.81470        1.45360
C         -0.44060       -2.66670        1.15360
C         -1.52410       -1.93630        0.39630
O         -2.03990       -0.74510        1.00000
C         -1.27510       -0.61950       -0.20880
H         -0.69040        1.38600        1.19440
H          0.53310        0.17830       -1.01170
H          1.86690       -0.04620        1.18920
H          1.48720       -2.23590        2.14440
H         -0.13950       -3.54810        0.56860
H         -0.86140       -3.06610        2.08660
H         -2.29390       -2.56770       -0.04850
H         -1.86080       -0.30620       -1.07240
