12
gdb 7243	4.95455	1.31702	1.04045	3.1452	54.04	-0.2562	-0.0705	0.1858	1022.1478	0.083611	-451.88053	-451.872709	-451.871765	-451.91327	26.905
N          0.06660        1.30650        0.00730
C          0.05890       -0.03600        0.00040
O          1.02870       -0.77500       -0.01310
C         -1.38480       -0.59990        0.01110
O         -2.35740        0.11520        0.02420
N         -1.35050       -1.97760        0.00390
C         -2.42480       -2.86450        0.00990
O         -3.58510       -2.56310        0.02250
H          0.93690        1.81070        0.00170
H         -0.81780        1.79050        0.01850
H         -0.40450       -2.34730       -0.00690
H         -2.05990       -3.91010        0.00130
