20
gdb 10176	2.89261	1.18992	0.88488	1.0148	78.24	-0.2578	0.0556	0.3134	1343.7674	0.174014	-348.965791	-348.95571	-348.954766	-349.001002	35.426
C          0.82700       -0.20430       -1.29630
C         -0.04150       -0.09870       -0.04230
C          0.64840       -0.63920        1.23160
C         -0.17980       -0.34600        2.49400
O         -0.27920        1.05240        2.64190
C         -1.04690        1.43330        3.75840
C          0.91820       -2.07270        1.14420
C          1.10970       -3.25820        1.08030
H          1.10180       -1.24360       -1.50010
H          0.29780        0.18420       -2.17180
H          1.75310        0.37110       -1.18570
H         -0.30800        0.94440        0.15080
H         -0.97930       -0.64850       -0.18870
H          1.60410       -0.10960        1.35220
H         -1.17930       -0.80290        2.40000
H          0.30640       -0.79630        3.37390
H         -2.08240        1.06470        3.68730
H         -0.61390        1.05730        4.69880
H         -1.06160        2.52540        3.78830
H          1.29410       -4.30210        1.02080
