18
gdb 7806	3.50564	1.801	1.25349	3.2186	70.61	-0.2267	0.0237	0.2504	974.6441	0.155649	-381.123287	-381.115725	-381.114781	-381.155072	28.575
C         -0.00590        1.46660        0.01040
N          0.00980        0.01500       -0.04280
C          0.77240       -0.50070       -1.16730
C          0.57510       -2.00420       -1.23520
O          0.93200       -2.66190       -0.01120
C          0.58650       -2.07120        1.16800
N          0.43890       -2.73660        2.23360
C          0.51760       -0.55910        1.19700
H          1.00140        1.90600        0.14310
H         -0.43300        1.86560       -0.91470
H         -0.63040        1.79770        0.84580
H          0.40200       -0.05310       -2.09600
H          1.85210       -0.26080       -1.08780
H         -0.47580       -2.22630       -1.45860
H          1.20470       -2.45440       -2.00640
H          0.57590       -3.73190        2.04350
H          1.54170       -0.19160        1.42070
H         -0.11880       -0.27160        2.03570
