17
gdb 13249	7.08106	0.89173	0.84388	2.9089	67.25	-0.2531	0.0167	0.2699	1333.2851	0.141812	-400.965041	-400.95657	-400.955626	-401.000242	28.294
N         -0.07520        1.23520       -0.26180
C         -0.04620       -0.01840       -0.12330
O         -1.19670       -0.71070       -0.01180
C         -1.07480       -2.12060        0.18570
C         -2.46890       -2.70940        0.14220
C         -3.11820       -2.76330       -1.25730
O         -2.98410       -4.20120       -1.30910
C         -2.51870       -4.25050        0.05300
H          0.87260        1.59840       -0.33830
H          0.85260       -0.65020       -0.08380
H         -0.45050       -2.56120       -0.60480
H         -0.59680       -2.32590        1.15400
H         -3.08450       -2.26040        0.92360
H         -4.16800       -2.44820       -1.29340
H         -2.56780       -2.26370       -2.06260
H         -1.55900       -4.77620        0.14420
H         -3.24620       -4.72760        0.72190
