20
gdb 6833	3.30813	1.45711	1.28999	2.7007	70.56	-0.2459	0.0628	0.3086	1050.5709	0.175795	-386.123187	-386.114201	-386.113257	-386.156619	33.266
C         -0.28030        1.57040       -0.07740
C         -0.07240        0.06320        0.04650
C         -1.30490       -0.70110       -0.44000
C          1.24910       -0.50520       -0.53180
O          1.56390       -1.17360        0.70890
C          0.46820       -0.50760        1.39370
C          1.03480        0.41890        2.45900
O          1.81100       -0.33180        3.37420
H          0.59680        2.14070        0.23970
H         -0.48890        1.83850       -1.11930
H         -1.13520        1.90360        0.52140
H         -1.53040       -0.45640       -1.48420
H         -1.15200       -1.78280       -0.37140
H         -2.18530       -0.44610        0.16050
H          1.15370       -1.21310       -1.36340
H          2.00160        0.25140       -0.79170
H         -0.18490       -1.24600        1.87690
H          1.63450        1.21650        1.99400
H          0.22880        0.89320        3.03000
H          2.42200       -0.84690        2.83200
