13
gdb 4273	4.04688	1.87483	1.28248	5.3859	64.13	-0.2225	-0.0207	0.2017	871.4302	0.097246	-398.649944	-398.643321	-398.642377	-398.680553	25.451
N          0.08650        1.36920        0.17940
C         -0.04570        0.00700        0.06470
C         -1.20450       -0.69700        0.03040
C         -1.20970       -2.14970       -0.01550
O         -2.22240       -2.83730       -0.04630
C          0.14860       -2.72880       -0.02820
C          1.23080       -1.94620       -0.00300
O          1.17420       -0.58420        0.04260
H          0.95650        1.74580       -0.16690
H         -0.72670        1.90760       -0.07410
H         -2.15300       -0.17420        0.04310
H          0.25490       -3.80570       -0.06340
H          2.26000       -2.28070       -0.01420
