14
gdb 13924	3.67548	1.83616	1.50515	1.8526	58.11	-0.2565	-0.0453	0.2112	838.7678	0.105936	-419.641382	-419.634338	-419.633394	-419.673191	25.097
O         -0.13690        0.01460       -0.24870
C         -0.09760        1.18980       -0.05510
C         -1.08550        2.29500        0.34040
O          0.00120        3.24860        0.27780
C          0.98350        2.27180       -0.09440
C          2.30970        2.17490        0.68560
O          3.07780        2.29230       -0.52700
C          1.89330        2.51830       -1.31430
H         -1.87910        2.50310       -0.38700
H         -1.51870        2.20600        1.34360
H          2.45710        3.02150        1.36780
H          2.49760        1.23040        1.20830
H          1.80010        1.80550       -2.14140
H          1.82040        3.54650       -1.69010
