19
gdb 18600	3.91921	1.85904	1.50586	1.5568	71.61	-0.2122	0.0882	0.3004	900.0243	0.16718	-365.04383	-365.036576	-365.035632	-365.075192	27.976
C         -0.03230        1.42570       -0.10030
N          0.04770       -0.00330        0.09190
C         -1.18670       -0.74600        0.41690
C         -0.40200       -1.56180        1.47690
O          0.10080       -2.82100        1.08220
C          1.32440       -2.63290        0.36500
C          1.97270       -1.37770        0.96990
C          0.74440       -0.52820        1.28980
H          0.97140        1.84190       -0.23900
H         -0.61150        1.64820       -1.00300
H         -0.50860        1.95690        0.74690
H         -1.96760       -0.12100        0.88010
H         -1.62320       -1.30660       -0.41700
H         -0.88170       -1.67560        2.45000
H          1.91870       -3.54260        0.48410
H          1.12440       -2.47780       -0.70360
H          2.51260       -1.62250        1.89120
H          2.65900       -0.88340        0.27780
H          0.88830        0.20440        2.09370
