15
gdb 9086	4.49885	1.02646	0.87085	3.5684	65.5	-0.253	0.014	0.267	1248.3606	0.116892	-399.78213	-399.773244	-399.772299	-399.816485	31.002
O         -0.43860        1.23000        0.00710
C          0.09200       -0.09440       -0.10300
C          1.08490       -0.17510       -1.27910
N          0.46170        0.32090       -2.48700
C          0.40590       -0.39340       -3.64320
O          0.92250       -1.47550       -3.82420
C          0.70990       -0.54400        1.14220
C          1.25960       -0.87510        2.15850
H          0.19970        1.75780        0.50050
H         -0.77250       -0.72560       -0.33920
H          1.98060        0.40880       -1.02800
H          1.39280       -1.20630       -1.46250
H         -0.05930        1.18090       -2.40890
H         -0.17090        0.14010       -4.42430
H          1.72700       -1.18380        3.06130
