17
gdb 1613	3.94854	1.91568	1.64767	4.1669	64.73	-0.2273	0.029	0.2563	833.0949	0.147068	-305.897998	-305.889567	-305.888623	-305.930279	29.885
C         -0.09110        1.59760        0.17010
C         -0.00010        0.06680       -0.03970
C         -1.35480       -0.51820       -0.00240
N         -2.42550       -0.95050        0.03480
N          0.69740       -0.39830       -1.23740
C          0.12760        0.05300       -2.49820
C          2.13760       -0.21900       -1.17100
H          0.91080        2.03440        0.18060
H         -0.67360        2.07360       -0.62210
H         -0.57290        1.81970        1.12590
H          0.54000       -0.35840        0.81590
H          0.28840        1.12580       -2.70480
H          0.58360       -0.51400       -3.31570
H         -0.94790       -0.14420       -2.51140
H          2.52500       -0.64720       -0.24080
H          2.60160       -0.75340       -2.00580
H          2.46730        0.83450       -1.22840
