22
gdb 9673	3.48727	1.14862	1.01473	1.4086	79.08	-0.2557	0.0789	0.3346	1267.5059	0.198589	-350.193179	-350.183295	-350.182351	-350.227658	36.298
C          0.02700        1.52910       -0.36310
C         -0.02740        0.11000        0.21950
C         -1.40770       -0.53450        0.14890
C         -2.47900        0.17860        0.95860
C         -1.83980       -1.17750       -1.15080
C         -1.55090       -2.04230        0.05430
C         -0.39790       -3.01160        0.05870
O         -0.85120       -4.21970       -0.54390
H          1.04940        1.91890       -0.33820
H         -0.31150        1.53800       -1.40460
H         -0.60310        2.22600        0.19740
H          0.69870       -0.51000       -0.31570
H          0.30590        0.13540        1.26630
H         -2.64080        1.20250        0.60510
H         -3.43730       -0.34510        0.89150
H         -2.20220        0.23260        2.01860
H         -2.86830       -1.06380       -1.47670
H         -1.11990       -1.21080       -1.96360
H         -2.42230       -2.45070        0.56080
H          0.46050       -2.60080       -0.49280
H         -0.06370       -3.19370        1.09360
H         -0.14000       -4.86480       -0.48490
