15
gdb 2674	17.85427	0.79445	0.77145	4.091	69.44	-0.2625	-0.0571	0.2054	1425.7222	0.122698	-308.505512	-308.496962	-308.496017	-308.540212	27.774
C          0.00120        1.56730        0.01040
C          0.01510        0.03790        0.00200
C         -1.40910       -0.55510        0.01260
C         -1.43860       -2.00930        0.00500
C         -1.45480       -3.21770       -0.00130
C         -1.43620       -4.65620       -0.00920
O         -2.42150       -5.35900       -0.00390
H          1.01830        1.96940        0.00280
H         -0.52120        1.96510       -0.86660
H         -0.50410        1.95550        0.90170
H          0.54510       -0.33150       -0.88260
H          0.56220       -0.34100        0.87220
H         -1.95480       -0.19450        0.89520
H         -1.97170       -0.18500       -0.85530
H         -0.41710       -5.09490       -0.02090
