14
gdb 20267	4.19006	2.86353	2.5388	1.1311	57.4	-0.25	0.0848	0.3348	602.3457	0.110602	-382.497571	-382.492989	-382.492045	-382.526013	20.086
O         -0.06250        1.46080       -0.00060
C          1.38800        1.42880        0.00260
C          1.79210        0.73470        1.31590
C          2.16260       -0.68070        0.94250
O          2.29530       -0.79860       -0.45740
C          1.33700        0.12370       -0.86710
C          0.02930        0.01290       -0.00690
C          0.73060       -0.37150        1.30850
H          1.85970        2.36750       -0.28040
H          2.14610        1.24940        2.19720
H          2.82460       -1.31980        1.51110
H          1.25970        0.20520       -1.94670
H         -0.88720       -0.49510       -0.29960
H          0.22500       -0.75250        2.18370
