18
gdb 5982	3.34844	1.25683	1.15315	2.9514	65.23	-0.2531	-0.0295	0.2236	1120.3566	0.149686	-422.073931	-422.064143	-422.063199	-422.108954	33.943
C         -0.04780        1.36000       -0.17330
O         -0.04850       -0.05000       -0.10960
C          0.82460       -0.65570       -1.04140
C          0.59130       -2.17480       -0.93840
C          1.08660       -2.72690        0.40590
O         -0.78400       -2.45070       -1.15000
C          1.33830       -2.83620       -2.09470
O          2.53820       -2.88600       -2.17420
H          0.94640        1.77250        0.05260
H         -0.35540        1.72000       -1.16660
H         -0.75960        1.71950        0.57320
H          0.59030       -0.30760       -2.06060
H          1.87580       -0.41450       -0.82820
H          0.65680       -2.14810        1.22700
H          0.78100       -3.77080        0.51200
H          2.17710       -2.67070        0.45770
H         -1.26830       -1.78330       -0.64810
H          0.66650       -3.25590       -2.87490
