17
gdb 1927	4.46944	2.76362	2.38599	1.3359	63.15	-0.251	0.0769	0.3279	643.4104	0.150699	-309.712046	-309.706065	-309.705121	-309.741282	24.716
O         -0.07430        1.39660        0.00400
C         -0.01400        0.00430        0.02280
C          0.30870       -0.82660        1.30880
C         -0.44120       -1.93200        0.51320
C         -1.34130       -0.78880       -0.04140
C          0.52040       -2.18660       -0.66880
C          0.84630       -0.70590       -1.04510
H          0.82360        1.73840       -0.06480
H          1.35710       -0.99890        1.57320
H         -0.25270       -0.46760        2.17380
H         -0.86890       -2.80070        1.01080
H         -2.06710       -0.42810        0.69040
H         -1.81480       -0.92290       -1.01840
H          1.40780       -2.75090       -0.36740
H          0.03850       -2.73000       -1.48670
H          0.53390       -0.43690       -2.05810
H          1.91000       -0.46420       -0.94120
