20
gdb 9757	3.39966	1.61746	1.5	1.3546	76.49	-0.2293	0.0194	0.2487	978.5952	0.17606	-349.018527	-349.009946	-349.009002	-349.051427	32.265
C          0.00940        1.51090       -0.22260
C         -0.08780       -0.00300       -0.01290
C         -1.52620       -0.53120        0.19080
C         -2.19670        0.06490        1.43710
O         -2.32110       -0.18150       -0.96380
C         -2.76760       -1.34580       -1.64900
C         -2.25220       -2.50050       -0.83720
C         -1.55830       -2.04280        0.19640
H          1.03400        1.79840       -0.47790
H         -0.64740        1.82370       -1.03870
H         -0.27340        2.06980        0.67460
H          0.32890       -0.51880       -0.88560
H          0.52090       -0.30650        0.84900
H         -2.30380        1.14790        1.33830
H         -3.19290       -0.36560        1.56870
H         -1.60690       -0.14290        2.33640
H         -3.86680       -1.33880       -1.72140
H         -2.37980       -1.35420       -2.68070
H         -2.43940       -3.53630       -1.09200
H         -1.06170       -2.63000        0.95900
