11
gdb 4660	6.7742	1.35993	1.13257	6.3308	59.54	-0.2352	-0.0187	0.2165	936.2925	0.074543	-393.639005	-393.63258	-393.631635	-393.669582	23.769
O          0.11310        1.30010        0.13920
C          0.07480       -0.03120        0.01590
N          0.10390       -0.72400       -1.08620
C          0.03980       -2.04770       -0.65950
C         -0.02680       -2.11690        0.70870
N         -0.00360       -0.80520        1.13440
C          0.04620       -3.14120       -1.56310
N          0.05020       -4.04640       -2.28510
H          0.16720        1.66170       -0.75510
H         -0.08620       -2.94840        1.38910
H         -0.03740       -0.47190        2.08350
