15
gdb 16191	3.26084	2.37588	1.53981	2.9631	68.06	-0.2457	-0.0529	0.1927	809.1605	0.120692	-362.674723	-362.668145	-362.667201	-362.70545	25.248
O          0.13140        0.00510       -0.10010
C          0.03120        1.21080       -0.00580
C         -1.19140        2.03820        0.05820
C         -0.86270        3.33820        0.04680
C          0.62650        3.58030       -0.02210
C          1.19680        2.17260        0.02360
C          2.42730        1.74250        0.74690
N          2.41290        1.80040       -0.71340
H         -2.18720        1.61610        0.08800
H         -1.57120        4.15910        0.07810
H          0.90500        4.09500       -0.94950
H          0.96730        4.21580        0.80410
H          3.03910        2.49700        1.23410
H          2.39880        0.76890        1.22920
H          2.26960        0.85530       -1.07330
