16
gdb 15291	5.8158	0.96583	0.87935	2.7142	72.81	-0.2512	-0.024	0.2272	1260.9125	0.128238	-346.566073	-346.557702	-346.556758	-346.5995	30.126
O         -0.17750        0.13690       -0.63670
C         -0.05000        1.21780       -0.11600
C          1.24130        1.92470        0.03240
C          1.24900        3.45190        0.00380
C          1.56970        2.75170        1.27670
C          0.64100        2.81880        2.48490
C          0.96850        3.94300        3.35650
C          1.26060        4.87080        4.06200
H         -0.93670        1.76770        0.27750
H          2.07150        1.40430       -0.43260
H          2.03890        3.93450       -0.55940
H          0.28170        3.94010       -0.07160
H          2.61970        2.71520        1.55070
H         -0.40310        2.90450        2.16290
H          0.70760        1.88300        3.05470
H          1.50800        5.68970        4.69100
