18
gdb 17243	4.50135	1.70849	1.61793	0.8718	71.27	-0.2342	0.101	0.3352	875.9345	0.154343	-347.737983	-347.730944	-347.73	-347.769107	27.589
C          0.02740        1.27630       -0.23820
O         -0.09790       -0.04760        0.25430
C         -1.37270       -0.54940        0.15820
C         -2.57440       -0.23310        1.04800
C         -3.19370       -1.52580        0.43980
C         -3.43760       -1.17440       -1.05600
C         -1.91770       -1.11830       -1.17390
C         -1.73160       -1.99910        0.05150
H          1.07630        1.55980       -0.12780
H         -0.25660        1.33870       -1.29780
H         -0.59370        1.98120        0.33190
H         -2.31950       -0.36480        2.10340
H         -3.12620        0.70400        0.90850
H         -3.91810       -2.10440        1.00810
H         -3.85270       -2.02190       -1.60990
H         -4.02380       -0.27300       -1.27260
H         -1.29710       -1.09940       -2.06100
H         -1.16440       -2.90280        0.21740
