16
gdb 3390	5.50387	1.8883	1.84209	2.2156	59.69	-0.2318	0.0622	0.294	749.7962	0.1378	-325.714378	-325.707654	-325.70671	-325.745187	25.095
O          0.33320        1.07090       -0.18720
C          0.09910        0.08390        0.80860
C         -1.29480       -0.49180        0.67390
C         -1.65750       -1.68950       -0.11980
C         -0.59680       -2.78830       -0.05880
C         -0.72460       -2.69640        1.48140
N         -1.82380       -1.66350        1.39910
H          0.22160        0.64670       -1.04460
H          0.87270       -0.69480        0.78210
H          0.19390        0.60260        1.76860
H         -2.04640        0.29580        0.65350
H         -2.52050       -1.69890       -0.77910
H         -0.95310       -3.74170       -0.45220
H          0.37400       -2.56850       -0.51470
H         -1.12750       -3.60290        1.93670
H          0.15380       -2.38230        2.05240
