15
gdb 4570	5.79864	1.55209	1.23482	1.5738	73.14	-0.216	-0.0337	0.1823	952.6196	0.120784	-358.906955	-358.899697	-358.898753	-358.938455	27.202
C         -0.03080        1.50570        0.01730
C         -0.01370        0.00210       -0.01400
C          0.23550       -0.72280       -1.17630
N          0.25650       -2.05710       -1.21950
C          0.01290       -2.69670       -0.07470
N         -0.03190       -4.07570       -0.10970
C         -0.23730       -1.97380        1.11000
N         -0.24700       -0.65260        1.13790
H          0.18230        1.92600       -0.96910
H         -1.00720        1.87660        0.34630
H          0.71240        1.88920        0.72400
H          0.43340       -0.20870       -2.11450
H          0.40190       -4.47970       -0.92660
H          0.16890       -4.56120        0.75040
H         -0.43120       -2.49580        2.04580
