18
gdb 12379	2.92216	2.10508	1.31059	4.2778	67.83	-0.257	0.0118	0.2689	945.3049	0.155078	-384.993545	-384.985841	-384.984897	-385.025793	28.78
C          0.06770        1.58070       -0.02000
C          0.10020        0.04950       -0.01320
C          0.70200       -0.54850       -1.29250
C          0.85600       -2.05900       -1.13340
C          1.76560       -2.33800        0.05130
O          1.35490       -1.68350        1.26370
C          0.74830       -0.47010        1.27630
O          0.66900        0.11820        2.32140
H          1.07910        1.99190       -0.10440
H         -0.51750        1.94370       -0.87050
H         -0.37150        1.96010        0.90330
H         -0.93690       -0.31370        0.06010
H          0.06750       -0.29780       -2.14890
H          1.68420       -0.09600       -1.48680
H         -0.12370       -2.52500       -0.97100
H          1.29040       -2.51900       -2.02750
H          1.80020       -3.40190        0.29970
H          2.79020       -2.01240       -0.17370
