15
gdb 15957	3.18398	1.91162	1.37521	1.8297	67.18	-0.2538	0.01	0.2639	896.1018	0.117927	-362.567958	-362.560502	-362.559558	-362.599919	27.687
C         -0.09620       -1.16330       -0.39460
C         -0.03360        0.00430       -0.11450
C          0.05520        1.42080        0.19170
O          0.05480        1.72570        1.60970
C          1.28620        2.48500        1.51850
C          1.42620        2.11150        0.05020
C          2.58450        1.68840       -0.75320
N          1.89520        2.97290       -1.01510
H         -0.15810       -2.19720       -0.63030
H         -0.75260        1.96630       -0.31930
H          1.12810        3.55430        1.70370
H          2.05320        2.09980        2.19950
H          3.59030        1.78510       -0.35350
H          2.44020        0.86040       -1.44240
H          1.29470        2.89660       -1.83330
