16
gdb 11033	4.17714	1.79311	1.48023	1.422	65.17	-0.2324	0.0066	0.239	855.4875	0.130239	-383.718937	-383.711582	-383.710638	-383.750044	28.789
O         -0.08510        1.45740       -0.04440
C          0.00680        0.03230       -0.00330
C          0.66620       -0.48650        1.26970
C         -0.13900       -1.29280        1.95890
C         -1.47540       -1.43170        1.28990
O         -2.10080       -2.67720        1.24840
C         -2.28490       -0.15630        1.20710
C         -1.39010       -0.57360        0.05460
H          0.81090        1.80950       -0.04680
H          0.54290       -0.32580       -0.89700
H          1.66000       -0.17090        1.57080
H          0.09100       -1.77840        2.90140
H         -2.63570       -2.76910        2.04380
H         -3.35000       -0.27210        1.03220
H         -1.99760        0.69640        1.81120
H         -1.86930       -0.89490       -0.86100
