18
gdb 18021	4.27529	1.47903	1.32315	0.4565	67.17	-0.2419	0.0725	0.3143	970.7731	0.154413	-384.89425	-384.886644	-384.8857	-384.926566	28.301
O          0.02020        1.27670       -0.35480
C          0.02500       -0.11200       -0.04440
C         -1.41760       -0.56220        0.05380
C         -2.29320       -0.53710       -1.24020
C         -2.67440       -2.02890       -1.01690
C         -1.70710       -3.02740       -1.66690
O         -0.76720       -2.90160       -0.57150
C         -1.68720       -2.08030        0.18510
H          0.92850        1.55000       -0.51210
H          0.53680       -0.69900       -0.81950
H          0.54210       -0.30720        0.90970
H         -1.91190       -0.01790        0.86570
H         -3.13250        0.15900       -1.19730
H         -1.73910       -0.34620       -2.16380
H         -3.73030       -2.28930       -0.96420
H         -2.08770       -4.05470       -1.74090
H         -1.26830       -2.73720       -2.63000
H         -1.89040       -2.50050        1.17450
