18
gdb 18481	3.26184	1.82713	1.57761	1.3394	67.93	-0.2271	0.0771	0.3042	906.0737	0.152531	-384.881746	-384.873676	-384.872732	-384.914231	29.715
C         -0.47130        1.04150        0.19250
O          0.59790        0.15410       -0.08770
C          0.99570       -0.57480        1.02480
C          0.15580       -1.64280        1.65440
O         -0.66570       -2.29540        0.69270
C          0.51660       -2.81770        0.00840
C          0.49940       -2.63650       -1.49460
C          1.44810       -2.00290        0.91380
H         -0.19630        1.77320        0.96690
H         -0.69310        1.57560       -0.73410
H         -1.36440        0.49470        0.52020
H          1.57540       -0.00330        1.75570
H         -0.13820       -1.69700        2.69730
H          0.60520       -3.88220        0.26400
H          0.42960       -1.58170       -1.75790
H          1.41580       -3.05350       -1.92690
H         -0.35030       -3.17610       -1.92610
H          2.41050       -2.34160        1.27460
