15
gdb 10060	3.44811	1.2396	1.01161	4.9995	61.86	-0.2655	-0.0406	0.2249	1120.4716	0.116784	-399.812876	-399.803983	-399.803039	-399.847362	29.984
O          0.26430        1.33260        0.01700
C          0.07100       -0.06310        0.12080
C         -1.42110       -0.46830        0.02860
C         -1.58950       -1.99770        0.10830
C         -2.89310       -2.44610       -0.37400
N         -3.91620       -2.78980       -0.78610
C         -2.20800        0.23490        1.12640
O         -2.79170       -0.34440        2.00620
H          0.10920        1.59520       -0.89610
H          0.63940       -0.61410       -0.64300
H          0.47260       -0.35360        1.09790
H         -1.79990       -0.10030       -0.93540
H         -0.81490       -2.49450       -0.48630
H         -1.47340       -2.32100        1.14750
H         -2.18020        1.34120        1.07620
