19
gdb 6886	2.91803	1.61252	1.40667	3.7819	73.7	-0.2437	0.0112	0.255	1003.6671	0.162882	-365.073016	-365.063746	-365.062802	-365.10634	33.539
C          0.07020        1.37340       -0.31630
C         -0.04530       -0.09830        0.00660
N          1.05520       -1.01290       -0.22190
C          2.25180       -0.75480       -0.84510
O          2.38250       -0.13180       -1.87450
C          0.65610       -0.79000        1.16310
C          1.58100       -0.01940        2.08570
C         -0.04380       -1.96280        1.82410
H          1.01980        1.80360        0.00570
H         -0.00360        1.52560       -1.39630
H         -0.74310        1.92410        0.16760
H         -1.01210       -0.52460       -0.26400
H          3.09790       -1.25710       -0.33500
H          2.09730        0.79670        1.57690
H          1.01450        0.40160        2.92300
H          2.34150       -0.68530        2.50790
H          0.68580       -2.67570        2.22390
H         -0.66690       -1.61940        2.65690
H         -0.67780       -2.49220        1.10900
