15
gdb 10663	2.71993	2.12107	1.32313	1.5905	66.8	-0.2687	-0.0348	0.2339	911.6733	0.117278	-362.691388	-362.683245	-362.682301	-362.724207	29.133
C         -0.42660        1.41850        0.04460
C          0.11320        0.01010       -0.00660
O          0.59960       -0.54580        0.95170
C          0.03280       -0.72570       -1.33050
C          1.17160       -1.72360       -1.60350
C         -0.16130       -2.24870       -1.23090
C         -0.54830       -0.05000       -2.45680
N         -1.01800        0.50440       -3.35770
H          0.09410        2.05240       -0.68140
H         -1.48490        1.43090       -0.23840
H         -0.30220        1.81920        1.05040
H          1.50130       -1.80530       -2.63190
H          1.94560       -1.72560       -0.84550
H         -0.29760       -2.60920       -0.21840
H         -0.78030       -2.70400       -1.99410
