17
gdb 19401	3.10089	2.16162	1.61975	1.9261	67.66	-0.2418	0.0748	0.3166	844.032	0.142059	-363.79021	-363.783005	-363.78206	-363.821364	27.936
C         -0.05260        1.58040       -0.08660
C          0.03110        0.06550        0.02440
C          1.05830       -0.66330       -0.87260
O          2.36270       -0.22600       -0.47810
C          1.73270       -1.26780        0.28770
C          0.77470       -0.57310        1.23690
C          0.99510       -0.05410        2.59940
N          0.15280       -1.25130        2.36660
H          0.94880        2.01680       -0.04640
H         -0.52390        1.88130       -1.02860
H         -0.64630        2.00740        0.72910
H         -0.95660       -0.40040       -0.08140
H          0.93750       -1.02530       -1.88710
H          2.25940       -2.20710        0.40550
H          1.93060       -0.24570        3.11760
H          0.50810        0.87890        2.87250
H         -0.83220       -1.00250        2.42820
