14
gdb 19677	4.92653	1.80967	1.68549	5.5759	64.51	-0.234	0.0239	0.2579	776.455	0.109568	-341.5178	-341.51186	-341.510916	-341.547846	23.338
N          0.03930       -1.18610       -0.08970
C          0.05570       -0.03330       -0.00930
C          0.03220        1.42380        0.06630
C         -0.15190        2.13670        1.41020
C          1.24750        2.29230        2.00840
N          2.16760        1.56980        1.10210
C          1.38170        2.20300       -0.00800
C          0.76300        3.27500        0.98220
H         -0.67670        1.81640       -0.66740
H         -1.04900        2.18300        2.01230
H          1.41250        2.39320        3.07280
H          3.06820        2.04550        1.14310
H          1.88330        2.36410       -0.95870
H          0.61080        4.34510        0.95330
