12
gdb 676	6.42281	4.72462	3.44212	1.059	44.8	-0.2313	0.0896	0.3209	425.5561	0.097684	-306.33485	-306.330075	-306.329131	-306.362777	17.914
C          0.02220        1.46170        0.30570
C          1.30930        0.76170       -0.09070
O          2.11100        0.21730        0.92880
C          1.25530       -0.57470        1.73370
O          0.14500       -0.96270        0.94370
C          0.03030       -0.00600       -0.08100
H         -0.13970        1.74450        1.33980
H         -0.39640        2.14980       -0.42150
H          1.88150        1.04030       -0.96590
H          1.79360       -1.46720        2.06840
H          0.91440        0.00450        2.60740
H         -0.49450       -0.38580       -0.94780
