20
gdb 12705	2.36303	2.24404	1.63212	1.7223	70.44	-0.2386	0.0652	0.3038	914.1215	0.176765	-386.149233	-386.14056	-386.139616	-386.182042	32.551
C          0.72560        1.43340       -0.36010
C          0.08920        0.11220        0.06560
O          0.15010       -0.81290       -1.03480
C          0.94630       -1.93830       -0.69880
C          1.74880       -1.56080        0.54930
O          2.93360       -0.83160        0.24930
C          0.76140       -0.62030        1.25650
C          1.35830        0.25610        2.35510
H          1.79050        1.29930       -0.56110
H          0.23770        1.79150       -1.27110
H          0.60290        2.19810        0.41380
H         -0.97220        0.28550        0.29010
H          0.31230       -2.81570       -0.49100
H          1.59320       -2.18710       -1.55020
H          1.98580       -2.44370        1.16070
H          3.49000       -1.37960       -0.31230
H         -0.00260       -1.26940        1.70310
H          2.17990        0.86540        1.97550
H          0.59910        0.92150        2.77900
H          1.74850       -0.36180        3.17030
