17
gdb 7657	4.82716	1.28144	1.21455	16.5398	69.32	-0.1511	-0.0374	0.1138	1021.3873	0.142938	-400.937791	-400.929734	-400.92879	-400.970767	29.406
N         -0.32880        1.87330        0.23130
H          0.10100        1.22480       -0.43370
H          0.35370        2.60210        0.45300
H         -1.13310        2.31130       -0.22430
C         -0.76200        1.12130        1.50500
C         -1.65050       -0.10860        1.31600
C         -0.88640       -0.68920        2.55500
C          0.30020        0.27280        2.20470
C         -1.58730       -0.25770        3.90850
O         -1.77680       -1.16880        4.71610
O         -1.85420        0.97320        3.96550
H         -1.21770        1.82590        2.20270
H         -2.72720        0.03960        1.40330
H         -1.41230       -0.65410        0.39160
H         -0.66970       -1.75590        2.53730
H          1.00330       -0.18180        1.49200
H          0.84170        0.73750        3.02920
