16
gdb 12723	3.1787	2.18428	1.60024	2.2842	65.06	-0.2443	-0.0243	0.22	824.6913	0.129954	-383.731537	-383.724221	-383.723277	-383.763134	27.82
O          0.41130        1.26920       -0.45300
C          0.13140       -0.03430       -0.09000
C          0.45200       -1.08580       -1.19040
C         -0.99470       -1.65450       -1.12970
C         -1.30740       -0.76980        0.09210
C         -0.80830       -1.36210        1.44220
C          0.40260       -0.41930        1.35320
O          1.07820        0.13340        2.18030
H          0.60890        1.76060        0.35530
H          0.69050       -0.57730       -2.12610
H          1.26380       -1.77860       -0.95630
H         -1.57960       -1.38630       -2.01230
H         -1.09180       -2.73140       -0.96690
H         -2.24510       -0.21830        0.13810
H         -1.43020       -1.16110        2.31790
H         -0.57130       -2.42960        1.41830
