10
gdb 21971	5.58266	1.79477	1.35814	4.8413	54.13	-0.289	-0.1037	0.1853	796.3061	0.061029	-450.526336	-450.520429	-450.519485	-450.557134	20.567
O         -0.17940        0.01660        0.00480
N         -0.05310        1.23260        0.00720
O          0.98860        1.86480        0.00230
C         -1.28100        2.01060        0.01710
N         -1.38890        3.29580        0.02130
C         -2.75670        3.49980        0.03060
C         -3.38580        2.29350        0.03130
O         -2.43320        1.32200        0.02250
H         -3.18380        4.48950        0.03600
H         -4.41030        1.96310        0.03690
