9
gdb 441	8.78743	3.90713	2.7507	1.6338	39.3	-0.2793	-0.0315	0.2478	433.0637	0.062716	-321.271406	-321.26687	-321.265926	-321.299312	15.897
O          0.02340        0.00590        0.00290
C         -0.04870        1.19160        0.01030
C         -1.23290        2.15160        0.03190
N         -0.65020        3.49200        0.03100
C          0.60190        3.30380        0.01260
O          1.08220        2.01720       -0.00100
H         -1.87400        1.99390       -0.84160
H         -1.84950        1.98440        0.92110
H          1.36780        4.06980        0.00610
