15
gdb 21253	7.16321	1.29339	1.11085	1.9444	65.17	-0.2252	0.0155	0.2407	1052.4341	0.118105	-399.796229	-399.788361	-399.787417	-399.828744	27.654
C          0.01420        1.42260        0.07720
O          0.05130       -0.00630       -0.02060
C          0.61850       -0.66770        0.98000
C          0.79440       -2.00830        1.15650
C          1.45880       -2.08020        2.41100
C          1.92050       -3.29830        3.14510
N          1.66370       -0.89410        2.94080
O          1.11720        0.02370        2.00960
H          1.02520        1.83650        0.13010
H         -0.48410        1.76290       -0.83010
H         -0.55060        1.73880        0.95890
H          0.49700       -2.80440        0.49700
H          2.63990       -3.86550        2.54570
H          2.39600       -3.01050        4.08470
H          1.07910       -3.96320        3.36540
