17
gdb 11605	6.001	0.96088	0.87743	2.5071	65.46	-0.2624	0.0597	0.322	1303.162	0.142038	-401.031379	-401.022817	-401.021872	-401.065786	30.506
N         -0.20370        1.23190       -0.19710
C          0.02930       -0.09500        0.04460
O          1.10660       -0.57760        0.30650
O         -1.13370       -0.78590       -0.01970
C         -1.02490       -2.18910        0.28780
C         -2.39460       -2.79310        0.19090
C         -2.93870       -3.21850       -1.14890
C         -2.52440       -4.25920       -0.14050
H          0.60770        1.79220       -0.39370
H         -1.07360        1.49690       -0.62720
H         -0.33140       -2.66050       -0.41730
H         -0.59860       -2.29950        1.29030
H         -3.11220       -2.39080        0.90000
H         -3.99630       -3.07690       -1.34030
H         -2.30610       -3.07410       -2.01850
H         -1.61520       -4.81940       -0.33280
H         -3.29570       -4.82900        0.36470
