17
gdb 7748	3.43661	1.80046	1.24333	3.2399	72.31	-0.2467	0.0104	0.2571	976.3835	0.142806	-363.888444	-363.880684	-363.879739	-363.92101	28.557
C         -0.14270        1.50520        0.09840
C          0.00780        0.02060       -0.05380
C          0.01240       -0.61620       -1.22230
C          0.17850       -2.10350       -1.29270
O         -0.30520       -2.80360       -0.13770
C         -0.33250       -2.20910        1.08410
N         -0.78660       -2.81220        2.10190
C          0.19790       -0.79760        1.20090
H          0.71600        1.93450        0.63050
H         -0.22880        2.00390       -0.87040
H         -1.03110        1.75090        0.69350
H         -0.08600       -0.08490       -2.16430
H         -0.38090       -2.52170       -2.13560
H          1.23470       -2.37660       -1.44450
H         -1.08810       -3.75410        1.84290
H          1.27120       -0.84920        1.44150
H         -0.28190       -0.34170        2.06960
