16
gdb 10419	2.53868	2.06645	1.44924	5.2148	64.95	-0.2492	0.0103	0.2595	910.7811	0.130692	-379.902722	-379.894482	-379.893538	-379.9358	29.256
N          0.23780        1.43750       -0.06480
C          0.04310        0.00080        0.04640
C          0.74850       -0.50830        1.30240
C          0.96130       -2.04380        1.41010
C          2.46190       -1.70020        1.35090
O          2.17900       -0.28600        1.21370
C          0.19400        0.10570        2.52050
N         -0.24910        0.52480        3.50180
H          1.22330        1.63430       -0.20820
H         -0.26740        1.80880       -0.86110
H         -1.02870       -0.21390        0.13230
H          0.43420       -0.59090       -0.79940
H          0.61110       -2.49790        2.33570
H          0.57060       -2.59850        0.55580
H          3.02780       -1.90870        2.26500
H          3.01390       -2.08670        0.48800
