14
gdb 11659	3.10819	2.04679	1.5446	1.0771	58.84	-0.2535	-0.0458	0.2076	821.6288	0.104959	-419.603376	-419.595997	-419.595052	-419.63607	26.58
O         -0.03330        1.51550        0.12950
C         -0.07590        0.13120        0.01420
C         -0.04850       -0.68910        1.32330
C         -1.48090       -0.21440        1.66130
C         -1.43050       -0.65880        0.17090
O         -0.62010       -1.82660        0.56040
C         -2.53030       -0.83930       -0.81750
O         -3.11450        0.08950       -1.31910
H         -0.32900        1.90090       -0.70230
H          0.55890       -0.27720       -0.77980
H          0.78880       -0.90550        1.98520
H         -2.04870       -0.87810        2.31350
H         -1.63230        0.84560        1.85920
H         -2.76330       -1.89740       -1.06760
