15
gdb 4365	3.74612	1.82488	1.22853	2.5899	72.22	-0.1957	0.0144	0.2102	931.1849	0.121199	-362.732392	-362.725475	-362.724531	-362.762976	27.797
N          0.00700        1.39870       -0.16370
C          0.00500        0.00480       -0.06910
C         -1.20110       -0.70420        0.00860
C         -1.18440       -2.09430        0.03990
C          0.00700       -2.80910       -0.00240
C          1.20720       -2.10100       -0.07890
O          2.36240       -2.82580       -0.11770
C          1.21030       -0.70780       -0.11040
H          0.85100        1.84500        0.16510
H         -0.81460        1.84410        0.21820
H         -2.14150       -0.16350        0.03950
H         -2.12450       -2.63350        0.10160
H          0.02890       -3.89130        0.02270
H          3.10960       -2.22210       -0.17920
H          2.15310       -0.16890       -0.17460
