17
gdb 7172	7.23352	0.84355	0.79269	6.0703	66.36	-0.2809	0.0362	0.317	1403.6782	0.140331	-400.999914	-400.99062	-400.989675	-401.034575	31.816
C          0.05950        1.33680       -0.05090
O          0.08360       -0.07340       -0.00260
C          0.59700       -0.58990        1.20640
C          0.67800       -2.10420        1.02000
O          1.46180       -2.41670       -0.11020
C          1.33300       -2.77760        2.23340
C          1.28630       -4.23610        2.16070
N          1.23740       -5.38940        2.12200
H          1.06780        1.76270        0.06180
H         -0.34140        1.62160       -1.02600
H         -0.58470        1.75590        0.73620
H          1.60200       -0.18140        1.40570
H         -0.05590       -0.33020        2.05590
H         -0.34730       -2.48980        0.90500
H          1.14600       -1.84240       -0.81900
H          2.37950       -2.45950        2.29370
H          0.83200       -2.45910        3.15440
