17
gdb 8287	5.12107	1.02621	0.98982	3.1662	66.58	-0.2516	0.0261	0.2777	1192.5638	0.141949	-401.007259	-400.998944	-400.998	-401.040922	29.943
O          0.27480        1.41870       -0.11060
C          0.12200        0.02080        0.01040
C          0.14640       -0.53080        1.46680
C         -1.40710       -0.60580        1.42630
C         -1.33730       -0.50650       -0.12480
N         -2.06810       -1.73760        2.02550
C         -3.06180       -1.62710        2.95090
O         -3.50740       -0.58440        3.38010
H         -0.35100        1.85350        0.47860
H          0.85330       -0.40700       -0.67780
H          0.59740       -1.52730        1.51700
H          0.61000        0.10460        2.22550
H         -1.87260        0.27400        1.87370
H         -2.05190        0.14830       -0.62980
H         -1.37100       -1.49500       -0.59450
H         -1.78420       -2.66460        1.74750
H         -3.42830       -2.62060        3.27740
