19
gdb 6887	2.86438	1.71343	1.55742	1.7442	74.56	-0.228	-0.0332	0.1947	953.8287	0.162589	-365.04913	-365.039954	-365.03901	-365.082085	33.599
C         -0.34440        1.42510       -0.09850
N         -0.00780        0.01190        0.05980
C          1.30140       -0.50780       -0.37590
C          2.40440        0.33000       -0.90310
O          2.62190        1.49700       -0.65480
C          0.88110       -0.45380        1.09720
C          1.55330        0.50670        2.05960
C          0.46840       -1.77380        1.72480
H          0.49620        2.11700       -0.00070
H         -0.78530        1.55890       -1.09100
H         -1.10990        1.67120        0.64410
H          1.24190       -1.47670       -0.87000
H          3.06980       -0.22600       -1.60180
H          1.99900        1.36400        1.55710
H          0.82100        0.86730        2.79130
H          2.34050       -0.01240        2.61550
H          1.34100       -2.31960        2.09910
H         -0.20240       -1.59320        2.57280
H         -0.06100       -2.39860        1.00240
