16
gdb 1618	3.72572	2.0929	1.42755	3.3111	60.92	-0.2987	0.0118	0.3105	848.3348	0.13506	-325.793904	-325.785563	-325.784619	-325.826204	29.663
C         -0.01070        1.55230       -0.00430
C          0.02050        0.02010        0.03180
C          0.76410       -0.50260        1.26720
C         -1.42350       -0.53460       -0.03210
O         -2.16530       -0.05350       -1.13910
C         -1.43160       -2.01340       -0.01760
N         -1.42470       -3.16880       -0.04850
H          1.00620        1.95300       -0.04960
H         -0.56870        1.91860       -0.86840
H         -0.48700        1.95250        0.89850
H          0.53910       -0.34450       -0.86680
H          0.82070       -1.59440        1.27950
H          1.78510       -0.11100        1.28820
H          0.26670       -0.17760        2.18870
H         -1.97180       -0.18860        0.85270
H         -1.75990       -0.39560       -1.94470
