14
gdb 14633	80.02236	0.49937	0.49937	0.0005	113.25	-0.2197	-0.0349	0.1848	2173.8255	0.104726	-308.21995	-308.210488	-308.209543	-308.255531	30.762
C         -0.01810        1.48260        0.01030
C          0.00180        0.03230        0.00180
C          0.01830       -1.18040       -0.00510
C          0.03640       -2.53210       -0.01200
C          0.05280       -3.75130       -0.01840
C          0.07120       -5.10300       -0.02590
C          0.08770       -6.31570       -0.03260
C          0.10730       -7.76610       -0.04070
H          0.99820        1.89280        0.00290
H         -0.54290        1.87670       -0.86760
H         -0.52600        1.86660        0.90240
H         -0.90910       -8.17610       -0.03320
H          0.61520       -8.15040       -0.93270
H          0.63210       -8.16000        0.83730
