16
gdb 18714	3.36388	2.19606	1.5265	1.4602	64.61	-0.2453	-0.0057	0.2396	826.5226	0.131759	-383.728672	-383.72187	-383.720925	-383.759456	26.714
O         -0.02230        1.43990        0.05740
C          0.02820        0.02100       -0.02130
C          0.89750       -0.57350        1.10590
C          0.75640       -2.06630        1.25370
C         -0.37860       -2.70080        0.95730
C         -1.55420       -1.95460        0.44170
O         -1.99200       -0.80280        1.20650
C         -1.35870       -0.58380       -0.05660
H         -0.50900        1.66280        0.85960
H          0.49950       -0.19000       -0.98960
H          1.94010       -0.28890        0.93700
H          0.59690       -0.09550        2.04870
H          1.60360       -2.61810        1.65120
H         -0.47750       -3.77360        1.08790
H         -2.37900       -2.54010        0.04120
H         -2.01430       -0.19430       -0.83590
