15
gdb 1152	6.02667	2.05106	2.04718	1.2552	57.1	-0.251	0.0715	0.3224	680.1462	0.124842	-345.602096	-345.595662	-345.594718	-345.63177	25.692
O         -0.07440        1.32070        0.01880
C          0.02030       -0.05520       -0.00320
C          0.66140       -1.00460        1.06240
C          0.03580       -1.90870       -0.02410
O          0.08450       -3.28590        0.03510
C         -1.22070       -0.97670       -0.00500
C          0.64860       -0.96440       -1.10730
H          0.81630        1.68710        0.01650
H          1.75320       -1.01070        1.12850
H          0.18790       -1.02520        2.04690
H         -0.36420       -3.63990       -0.74020
H         -1.82300       -0.98650        0.90660
H         -1.83770       -0.95720       -0.90800
H          0.16020       -0.94840       -2.08590
H          1.73930       -0.96340       -1.19030
