18
gdb 8717	2.36927	1.74431	1.45048	2.3405	59.31	-0.2451	0.0494	0.2944	961.1545	0.152152	-459.195626	-459.186219	-459.185274	-459.229854	34.404
O          0.42970        0.90480       -0.06980
C          0.05740       -0.46030       -0.00630
C         -1.47230       -0.68650        0.03550
O         -1.73490       -2.06070       -0.21980
C         -2.03260       -0.41830        1.43320
O         -1.64030        0.89860        1.82660
C         -2.18260        0.17620       -1.01790
O         -1.72460       -0.15910       -2.32420
H          0.01610        1.32340        0.69690
H          0.44860       -0.93610       -0.91150
H          0.51560       -0.97730        0.85080
H         -1.68600       -2.15680       -1.18040
H         -3.12720       -0.51770        1.42110
H         -1.62840       -1.17720        2.11680
H         -1.88170        1.03190        2.74710
H         -3.25250       -0.05740       -0.99780
H         -2.05030        1.24050       -0.80260
H         -0.88300        0.29280       -2.45060
