18
gdb 15637	3.23403	1.6879	1.17916	2.4572	73.42	-0.2385	-0.016	0.2225	1037.3758	0.153468	-347.842275	-347.834254	-347.83331	-347.875199	29.586
C          0.06700        1.59940        0.12750
C          0.02450        0.07260        0.03290
C         -1.40360       -0.50110       -0.06080
C         -2.14330       -0.26010       -1.35290
C         -2.57030       -1.38580       -1.92850
C         -2.21030       -2.61310       -1.13650
C         -1.40620       -2.04070        0.04130
O         -0.84750       -2.68090        0.89350
H          1.09770        1.95620        0.21690
H         -0.36950        2.07400       -0.75760
H         -0.48650        1.95680        1.00300
H          0.60150       -0.26300       -0.83780
H          0.49880       -0.37410        0.91350
H         -1.97350       -0.11260        0.79840
H         -2.30450        0.73450       -1.75320
H         -3.12370       -1.43530       -2.85930
H         -3.08290       -3.16360       -0.75970
H         -1.60670       -3.34470       -1.68820
