11
gdb 45	16.58914	7.18798	6.11415	1.1353	39.02	-0.2304	0.0968	0.3271	270.5508	0.097671	-173.147782	-173.143343	-173.142399	-173.174073	15.298
C         -0.05280        1.47420        0.01000
N          0.01940        0.02190        0.06330
C          1.32510       -0.56450       -0.21420
C          0.78050       -0.54060        1.17240
H          0.86780        1.97180        0.36300
H         -0.23850        1.79100       -1.02140
H         -0.88680        1.81940        0.62950
H          1.31990       -1.48190       -0.79600
H          2.15200        0.11020       -0.43290
H          1.24560        0.15000        1.87500
H          0.37010       -1.44020        1.62230
