13
gdb 21195	7.20267	1.33995	1.13944	4.696	56.89	-0.2279	0.0198	0.2477	982.8719	0.096394	-431.925215	-431.917781	-431.916837	-431.95718	26.195
C         -0.04270        1.41810       -0.02730
N          0.05810       -0.03160       -0.03870
C          0.60020       -0.71600       -1.06350
N          0.57640       -2.01420       -1.25070
C          1.30890       -2.11940       -2.40120
O          1.55060       -3.30020       -2.97270
N          1.76640       -1.01110       -2.92580
O          1.26860       -0.03640       -1.99710
H          0.91350        1.85320       -0.32420
H         -0.81930        1.79400       -0.70550
H         -0.27180        1.74460        0.98860
H         -0.56100       -0.56900        0.54540
H          1.12830       -3.96830       -2.41960
