16
gdb 4824	4.52374	1.43648	1.11253	3.2218	68.36	-0.2041	0.0351	0.2392	1049.5339	0.131524	-379.963269	-379.955187	-379.954243	-379.996127	28.793
C          0.04200        1.48270        0.10320
C          0.00160       -0.00240       -0.01970
C         -0.13760       -0.84070       -1.09700
N         -0.14160       -2.16250       -0.70590
C          0.00100       -2.13130        0.59850
C          0.10520       -3.30680        1.51600
O         -0.22530       -2.86010        2.82800
N          0.09950       -0.85390        1.06390
H          0.98370        1.83820        0.53930
H         -0.05580        1.93670       -0.88580
H         -0.77360        1.86960        0.72670
H         -0.24160       -0.56100       -2.13510
H         -0.57170       -4.09540        1.16030
H          1.12770       -3.71680        1.49070
H          0.00810       -3.55550        3.44900
H          0.15900       -0.61120        2.03910
