16
gdb 14065	3.5244	1.58839	1.46445	3.2344	60.84	-0.2354	0.0421	0.2776	907.0374	0.129528	-420.814289	-420.80647	-420.805526	-420.846511	28.744
O          0.08510        1.38600        0.01040
C          0.05790       -0.00800       -0.00820
C         -0.46190       -0.72260        1.22220
O         -0.95520        0.10410        2.24830
C         -1.27240       -0.71340       -0.03650
C         -2.63380       -0.07010       -0.26160
O         -3.03970       -1.18420       -1.09330
C         -1.78340       -1.86530       -0.89240
H         -0.35230        1.65060        0.83190
H          0.89490       -0.42720       -0.56030
H         -0.00760       -1.65710        1.54960
H         -0.23380        0.27300        2.86520
H         -3.26610        0.03260        0.62810
H         -2.61640        0.87740       -0.81370
H         -1.24910       -2.03560       -1.83660
H         -1.91300       -2.82480       -0.37290
