14
gdb 5206	8.77427	1.01743	0.91693	0.6215	80.08	-0.2057	-0.0113	0.1944	1229.2443	0.107193	-345.414833	-345.407236	-345.406292	-345.448811	26.457
C         -0.10190        1.44760       -0.00160
C         -0.01450       -0.00310       -0.00740
C          0.05560       -1.20820       -0.01270
C          0.15080       -2.60980       -0.01600
C          1.19730       -3.46950        0.18890
C          0.67420       -4.79020        0.05740
C         -0.64990       -4.64290       -0.21740
O         -0.98970       -3.33300       -0.26690
H          0.57550        1.89230       -0.73950
H         -1.11830        1.77670       -0.24360
H          0.15610        1.86100        0.98010
H          2.21310       -3.18120        0.40650
H          1.21080       -5.72070        0.15440
H         -1.45240       -5.33940       -0.39710
