19
gdb 14104	3.13495	1.73154	1.46477	1.8546	71.97	-0.2339	0.0771	0.3109	958.2287	0.164248	-365.012105	-365.003779	-365.002835	-365.044656	30.968
C         -0.26030        1.51500        0.06420
C          0.13030        0.05240       -0.01850
O          1.35240       -0.15040       -0.77350
C          1.98360       -0.87780        0.30410
C          0.77760       -0.62810        1.19860
C          0.67930       -0.27230        2.63370
N          0.22310       -1.57420        2.13920
C         -1.21570       -1.80000        2.11170
H          0.53050        2.10330        0.53840
H         -0.43350        1.91380       -0.94050
H         -1.18350        1.63810        0.64120
H         -0.69030       -0.53680       -0.45480
H          2.15120       -1.93360        0.05600
H          2.93210       -0.41950        0.60970
H          1.55920       -0.28730        3.27260
H         -0.07680        0.46020        2.91700
H         -1.80590       -0.89610        1.88680
H         -1.45110       -2.55890        1.35870
H         -1.53440       -2.17930        3.08730
