13
gdb 8967	5.89626	0.91523	0.79997	3.8667	66.02	-0.2861	-0.0761	0.21	1299.8074	0.09295	-361.457648	-361.449215	-361.448271	-361.491615	28.594
O         -0.04780       -0.09640        0.00140
C         -0.03590        1.11530        0.00530
C          1.25180        1.92400       -0.00220
C          2.48920        1.01320       -0.01590
C          3.73040        1.78200       -0.02270
N          4.70410        2.40400       -0.02830
C         -1.25590        1.89990        0.01780
C         -2.25320        2.57340        0.02830
H          1.24080        2.59090       -0.87250
H          1.25510        2.58400        0.87340
H          2.47780        0.35190        0.85580
H          2.46370        0.35890       -0.89260
H         -3.14500        3.15270        0.03890
