11
gdb 23881	3.54769	1.41404	1.24023	3.5023	40.99	-0.2799	-0.0516	0.2283	922.4261	0.065931	-566.03606	-566.02789	-566.026945	-566.071016	26.997
O          0.02600        1.41170        0.01150
C         -0.01970        0.01320        0.00460
C         -1.46910       -0.43560        0.01170
O         -2.42310        0.28690        0.02160
C         -1.65120       -1.98060        0.00490
F         -2.92770       -2.32120        0.01150
F         -1.06750       -2.50670       -1.08520
F         -1.05340       -2.51790        1.08190
H          0.94910        1.68120        0.00690
H          0.45500       -0.43700       -0.88370
H          0.46640       -0.44610        0.88200
