16
gdb 9560	4.2636	1.30612	1.23486	0.4804	79.53	-0.2381	0.0244	0.2625	1029.543	0.127278	-309.393137	-309.384514	-309.38357	-309.425668	32.511
C         -0.04310        1.54230       -0.07690
C          0.01300        0.02420       -0.03140
C          1.34410       -0.66610       -0.24210
C          0.73840       -0.66880        1.14620
C          1.31500        0.10280        2.20550
C          1.79500        0.74240        3.10480
C         -1.16410       -0.64740       -0.51550
C         -2.15670       -1.19280       -0.92140
H          0.86560        1.97550        0.34690
H         -0.14850        1.88650       -1.11000
H         -0.89720        1.91490        0.49580
H          1.35450       -1.60450       -0.78300
H          2.20500       -0.02760       -0.40380
H          0.28610       -1.60490        1.45710
H          2.21800        1.30450        3.90000
H         -3.03170       -1.67580       -1.27980
