12
gdb 21329	6.30235	1.38227	1.14531	3.7185	59.43	-0.2718	-0.0144	0.2574	939.7352	0.085913	-373.711965	-373.70525	-373.704306	-373.744776	23.186
N         -0.28880       -0.68520       -1.23730
C         -0.15290        0.17720       -0.48090
C          0.06400        1.29070        0.44250
C          1.41200        1.93080        0.25840
C          2.10740        2.85890        0.99830
N          3.28810        3.12300        0.37330
N          3.36650        2.40940       -0.71230
N          2.23330        1.68760       -0.79070
H         -0.73710        2.02480        0.29020
H         -0.04240        0.92430        1.46960
H          1.83330        3.34060        1.92310
H          2.09650        1.04430       -1.55700
