14
gdb 1846	6.10021	2.12547	1.6076	3.6461	60.	-0.2108	0.0052	0.216	747.8167	0.11381	-324.634527	-324.627867	-324.626923	-324.664897	24.669
C          0.02030        1.51660        0.00490
C         -0.05590        0.02820       -0.00930
C         -1.10740       -0.78710       -0.16410
C         -0.64000       -2.21640       -0.09910
C          0.87780       -2.09030        0.12200
O          1.70370       -2.96490        0.24030
N          1.12140       -0.72830        0.16030
H          0.67640        1.88990       -0.79090
H         -0.97160        1.94960       -0.13850
H          0.42220        1.88610        0.95630
H         -2.12820       -0.46830       -0.31190
H         -1.07900       -2.79370        0.72330
H         -0.82610       -2.79000       -1.01490
H          2.04440       -0.34960        0.29530
