13
gdb 21553	4.05476	1.90413	1.29686	2.7933	67.54	-0.2155	-0.0462	0.1693	868.7335	0.096789	-394.760076	-394.753316	-394.752372	-394.790849	25.847
N          0.03810        1.37090        0.15110
C         -0.06820        0.00750        0.05260
C         -1.21410       -0.71420        0.03040
C         -1.14340       -2.14900       -0.00330
N         -2.17840       -2.91600       -0.02550
C          0.24850       -2.63390       -0.01440
N          1.32310       -1.93710       -0.00300
O          1.17170       -0.54680        0.02840
H          0.91250        1.75820       -0.17120
H         -0.77780        1.89630       -0.12080
H         -2.17710       -0.22070        0.04660
H         -1.89400       -3.89720       -0.04870
H          0.43370       -3.70660       -0.03770
