16
gdb 4822	4.45834	1.39132	1.12977	1.9194	68.84	-0.2135	0.0131	0.2266	1054.5722	0.130333	-383.772959	-383.76494	-383.763996	-383.805815	28.764
C          0.18510        1.37680       -0.14120
C         -0.06610       -0.08640       -0.07380
C         -1.19510       -0.84350       -0.01810
C         -0.77010       -2.21210        0.02460
C          0.58790       -2.19670       -0.00050
C          1.64600       -3.24330       -0.00380
O          2.35590       -3.32750       -1.23640
O          1.03100       -0.90040       -0.05870
H          0.73510        1.65040       -1.04910
H         -0.76500        1.91540       -0.14320
H          0.77460        1.72480        0.71480
H         -2.20800       -0.47190       -0.01040
H         -1.39430       -3.09130        0.06640
H          2.34290       -3.07350        0.83240
H          1.17710       -4.21870        0.14960
H          2.70770       -2.44980       -1.41840
