15
gdb 3345	4.15097	3.24882	2.19755	1.1028	56.06	-0.2517	0.0816	0.3333	621.6934	0.127246	-345.63757	-345.631836	-345.630892	-345.666945	22.179
C         -0.02270        1.43210        0.02170
C          1.43300        1.91150        0.00960
C          2.21230        1.25510        1.12650
O          1.59740        1.28090        2.41810
C          1.68520        0.02260        1.73210
C          0.37610       -0.56110        1.22740
O         -0.08260        0.01480        0.01800
H         -0.54550        1.83990        0.89940
H         -0.54740        1.76410       -0.87800
H          1.90080        1.64620       -0.94600
H          1.47640        3.00310        0.10710
H          3.28860        1.42890        1.13760
H          2.37370       -0.68390        2.19540
H          0.50420       -1.62860        1.02200
H         -0.38260       -0.45580        2.02090
