12
gdb 21799	6.80144	1.1872	1.08998	1.7178	56.56	-0.2726	-0.0497	0.2229	1010.4542	0.083484	-414.66586	-414.658944	-414.658	-414.698845	23.114
O         -0.32930        0.04760        0.22340
C         -0.05570        1.19850        0.02730
C          1.33630        1.66070       -0.42050
C          1.27240        2.82270       -1.34690
N          0.68940        3.96990       -1.15200
C          0.92840        4.60960       -2.34350
N          1.60780        3.92300       -3.21940
O          1.84010        2.71170       -2.55370
H         -0.78440        2.02140        0.17810
H          1.86810        1.96680        0.49080
H          1.87450        0.82370       -0.86700
H          0.58850        5.61190       -2.55960
