13
gdb 2965	7.34234	1.58771	1.45247	4.3374	56.36	-0.2475	-0.0936	0.1539	820.7111	0.100024	-344.454591	-344.447535	-344.446591	-344.486551	24.053
O         -0.06330        0.00580       -0.02770
C         -0.00390        1.20280       -0.02060
C          1.34120        1.96920        0.03440
O          2.38310        1.35520        0.07320
C          1.24840        3.44710        0.03550
C          2.31370        4.20900        0.82200
C          2.37140        4.21360       -0.66110
H         -0.91680        1.84040       -0.05320
H          0.25300        3.87480       -0.00190
H          1.98910        5.10310        1.34110
H          3.02720        3.58760        1.35120
H          3.12400        3.59530       -1.13700
H          2.08820        5.11100       -1.19840
