17
gdb 19871	4.09509	2.09869	1.82738	3.1384	66.16	-0.2212	0.073	0.2942	770.8525	0.145545	-363.808321	-363.802237	-363.801292	-363.838401	24.618
C         -0.02220        1.55110       -0.01070
O          1.35030        1.94150        0.05680
C          2.05200        1.00960        0.88130
C          1.38340       -0.34980        0.62970
C          0.65380       -1.08350        1.77580
N         -0.20320       -0.07720        2.44630
C         -0.67470       -0.73610        1.20520
C         -0.01750        0.01590        0.02760
H         -0.58610        1.95780        0.83890
H         -0.42620        1.96430       -0.93930
H          3.10230        1.04320        0.57820
H          1.97440        1.28920        1.94010
H          1.97220       -1.01910        0.00150
H          0.97730       -1.97370        2.30080
H         -0.66070       -0.54250        3.22890
H         -1.59920       -1.30010        1.19430
H         -0.21660       -0.44790       -0.93920
