15
gdb 19601	3.28769	2.43052	1.83782	2.3479	64.08	-0.2348	-0.0072	0.2276	753.3729	0.119068	-362.612996	-362.606507	-362.605563	-362.643439	25.238
C          0.04330        1.57950       -0.06940
C          0.06610        0.06460       -0.08850
C          0.70110       -0.70680       -1.26310
C          1.25600       -1.67990       -0.15120
C          2.35410       -0.67990        0.12300
N          1.04060       -0.63290        0.85230
C          2.14590       -0.15640       -1.26840
O          2.86880        0.28490       -2.11530
H          1.02140        2.00700       -0.30950
H         -0.67800        1.95640       -0.80210
H         -0.25560        1.94060        0.91930
H         -0.91730       -0.34180        0.16610
H          0.19270       -0.94230       -2.19420
H          1.23800       -2.74840        0.00950
H          3.25270       -0.77960        0.71540
