18
gdb 16300	3.47365	1.66119	1.39007	3.0167	73.49	-0.2431	-0.0233	0.2198	954.9602	0.153125	-347.794787	-347.786921	-347.785977	-347.826827	29.538
C         -0.11350        1.60150       -0.16520
C          0.05140        0.09370       -0.01800
C          1.16450       -0.63710       -0.84720
C          1.74260       -1.22700        0.44240
C          2.14280       -0.16150        1.39340
C          0.66420       -0.46050        1.28040
C         -0.07740       -1.03620        2.41040
O          0.42710       -1.53070        3.39400
H          0.82760        2.13190        0.01220
H         -0.45410        1.85960       -1.17380
H         -0.85210        1.98720        0.54600
H         -0.91180       -0.39690       -0.19720
H          0.76280       -1.38380       -1.53440
H          1.85020        0.01360       -1.40060
H          2.02290       -2.26170        0.59610
H          2.57190       -0.50040        2.33000
H          2.52180        0.78860        1.02620
H         -1.18590       -1.01270        2.28880
