15
gdb 9580	4.29932	1.30005	1.21189	3.1893	67.89	-0.2716	-0.0445	0.2271	1002.2942	0.117304	-362.681524	-362.673395	-362.672451	-362.71412	28.974
C         -0.11090        1.56430        0.03480
C         -0.03840        0.05540        0.05870
C          1.26000       -0.66210       -0.24240
C          0.73910       -0.68340        1.17030
C          1.38710        0.08130        2.19690
N          1.90800        0.69860        3.02500
C         -1.27440       -0.66710       -0.36360
O         -2.28410       -0.12530       -0.73030
H          0.81210        2.01310        0.40800
H         -0.28390        1.91280       -0.98690
H         -0.94190        1.91840        0.65010
H          1.22580       -1.59740       -0.79090
H          2.12060       -0.03850       -0.45250
H          0.30850       -1.61670        1.52070
H         -1.19420       -1.77950       -0.32100
