13
gdb 2746	4.62071	2.47341	1.64474	5.1696	58.79	-0.251	-0.0212	0.2298	720.2547	0.102495	-340.654517	-340.647928	-340.646984	-340.685339	22.936
N          0.05230        1.31410        0.00730
C         -0.00940        0.04690        0.00420
N         -1.20560       -0.64840        0.01160
C         -1.44720       -2.10120        0.00960
C         -2.96880       -1.79610        0.02260
C         -2.57180       -0.30520        0.02350
O         -3.14520        0.74100        0.03090
H          1.02540        1.61530        0.00040
H          0.84690       -0.64090       -0.00460
H         -1.07990       -2.60510       -0.88910
H         -1.06570       -2.61000        0.89960
H         -3.52100       -2.10830       -0.86530
H         -3.50670       -2.11310        0.91740
