16
gdb 1302	3.41126	2.58978	2.19606	3.4842	61.14	-0.2417	0.0406	0.2823	703.5296	0.136142	-325.809179	-325.80157	-325.800626	-325.840507	27.589
C         -0.05130        1.53850       -0.00680
C         -0.03850        0.01150       -0.01890
C         -1.42160       -0.58420        0.23300
C          0.76610       -0.64050       -1.19610
N          1.71030       -1.13550       -0.19260
C          1.06730       -0.59820        0.89400
O          1.29470       -0.61120        2.07480
H          0.94310        1.95040       -0.20600
H         -0.74130        1.93110       -0.76190
H         -0.37480        1.90540        0.97220
H         -2.14070       -0.23730       -0.51730
H         -1.39950       -1.67830        0.20430
H         -1.78840       -0.28340        1.21920
H          0.23520       -1.42910       -1.73980
H          1.20020        0.06820       -1.90930
H          2.55250       -1.68650       -0.26930
