16
gdb 17124	5.15844	1.32371	1.25504	3.4503	65.25	-0.2496	0.0212	0.2708	983.7808	0.131886	-379.912392	-379.905131	-379.904187	-379.944337	27.039
O          0.29710        0.03450        0.16360
C          0.10270        1.21110        0.04260
C         -1.10880        2.12550       -0.24470
C         -0.13500        3.31300        0.04400
N          0.93930        2.31010        0.15970
C          0.04390        4.34090       -1.04920
C          1.38290        4.87180       -1.39710
N          0.66810        3.97650       -2.32570
H         -1.48370        2.07690       -1.26860
H         -1.93260        2.00150        0.45950
H         -0.35730        3.81390        0.99390
H          1.83360        2.36940        0.62740
H         -0.81450        5.00260       -1.15430
H          1.49420        5.89780       -1.73520
H          2.24320        4.47450       -0.86370
H          1.06440        3.04130       -2.23940
