19
gdb 2387	5.42719	1.99804	1.97557	0.0187	70.96	-0.2684	0.0879	0.3563	768.2713	0.173033	-273.764642	-273.757898	-273.756954	-273.79518	26.382
C         -0.03500        1.54990       -0.09910
C          1.51180        1.50310        0.02300
C          1.38460        0.06690        0.60690
C         -0.04900        0.00220        0.02890
C          2.50090       -0.97920        0.37650
C          3.00420       -0.71640        1.82200
C          1.62910       -0.06850        2.13720
H         -0.49820        2.03410        0.76500
H         -0.45660        1.98780       -1.00680
H          1.99510        1.49440       -0.95980
H          2.00030        2.26060        0.64310
H         -0.81990       -0.45430        0.65710
H         -0.06600       -0.48700       -0.95110
H          2.08990       -1.98850        0.26600
H          3.19390       -0.79520       -0.45010
H          3.30390       -1.58020        2.41990
H          3.81540        0.01660        1.84380
H          1.61900        0.84790        2.73470
H          0.93800       -0.78680        2.59100
