17
gdb 4541	3.95923	1.64525	1.17954	1.0374	72.28	-0.1757	0.064	0.2397	1016.5794	0.141555	-363.899921	-363.891181	-363.890236	-363.933213	31.234
C         -0.04560        1.45910        0.02260
N          0.04090        0.01520        0.00520
C          0.04210       -0.79510       -1.12190
C          0.05800       -2.10710       -0.72320
C          0.08250       -3.31000       -1.61600
C          0.05560       -2.10930        0.71070
C          0.04120       -0.79320        1.10550
O          0.02550       -0.19250        2.32650
H          0.46410        1.86210       -0.85580
H         -1.08530        1.80840        0.01620
H          0.44190        1.84350        0.92000
H          0.03800       -0.35600       -2.10690
H          0.97780       -3.92240       -1.45270
H         -0.78310       -3.96180       -1.44610
H          0.07210       -3.01700       -2.67020
H          0.07270       -2.97140        1.36080
H          0.09990       -0.87860        2.99600
