11
gdb 737	9.32124	3.6878	2.68634	2.3091	47.01	-0.2566	0.0134	0.27	473.5053	0.087309	-281.504745	-281.499538	-281.498594	-281.533357	18.13
C         -0.01730        1.46000       -0.00340
C          0.00330       -0.03120        0.01160
N         -0.09320       -0.75730       -1.09390
N         -0.03100       -2.02420       -0.61390
C          0.09700       -2.00850        0.72650
N          0.12270       -0.76590        1.16170
H          0.90400        1.86340        0.42810
H         -0.11980        1.82440       -1.02680
H         -0.85000        1.84090        0.59580
H         -0.08160       -2.80450       -1.24740
H          0.16590       -2.90390        1.32620
