20
gdb 13630	3.60335	1.16148	1.05755	1.0506	71.69	-0.2567	0.0679	0.3246	1224.7891	0.174431	-386.124825	-386.115165	-386.11422	-386.159562	34.557
C         -0.19780        1.51700       -0.03280
C         -0.10190       -0.00190       -0.19080
C          1.06140       -0.44110       -1.08730
O          2.32550       -0.00350       -0.59230
C          1.07340       -1.94720       -1.26890
O          0.01370       -2.52510       -2.03610
C          1.35700       -2.64890       -2.53030
C          1.68380       -1.98390       -3.84170
H          0.73970        1.92780        0.35190
H         -0.39930        1.99930       -0.99560
H         -1.00300        1.79340        0.65410
H          0.01770       -0.47730        0.79470
H         -1.02790       -0.40690       -0.61460
H          0.95740        0.04420       -2.06270
H          2.41750       -0.33330        0.30900
H          1.29110       -2.48780       -0.34090
H          1.75370       -3.66220       -2.43370
H          1.25490       -0.98260       -3.91090
H          2.76890       -1.90860       -3.96820
H          1.28840       -2.57790       -4.67240
