14
gdb 23921	4.25455	1.25651	1.22278	2.6054	50.59	-0.2549	0.0725	0.3273	984.444	0.104165	-510.206322	-510.198854	-510.197909	-510.238973	26.794
F         -0.43750        0.06120        0.18550
C         -0.10500        1.36140        0.09820
F          1.22830        1.42690       -0.03080
F         -0.64480        1.83580       -1.03540
C         -0.59260        2.14170        1.30540
C          0.06780        1.69890        2.59200
C         -0.71790        1.66180        3.85040
N         -0.28400        0.41200        3.20750
H         -0.39220        3.20060        1.11130
H         -1.67900        2.01470        1.35610
H          1.12940        1.92610        2.65040
H         -0.23650        1.88060        4.79900
H         -1.76690        1.94400        3.80090
H         -1.05330       -0.01850        2.70090
