17
gdb 5252	6.73402	1.04443	0.96049	1.1964	69.87	-0.2386	0.0071	0.2456	1224.0002	0.143294	-363.903602	-363.895877	-363.894933	-363.936431	27.766
C         -0.05690        1.56130        0.04920
C         -0.13330        0.03840       -0.07700
C          0.77430       -0.51130       -1.19210
C          0.75240       -2.00230       -1.28130
C          0.31380       -2.81220       -2.27570
O          0.49140       -4.11420       -1.88790
C          1.03700       -4.01620       -0.65650
N          1.21790       -2.80830       -0.23810
H          0.96360        1.88900        0.27660
H         -0.36250        2.05500       -0.88040
H         -0.70910        1.92610        0.84870
H          0.15350       -0.43340        0.86920
H         -1.16740       -0.26970       -0.27450
H          0.47760       -0.08690       -2.15860
H          1.80480       -0.18140       -1.00660
H         -0.11640       -2.65610       -3.24980
H          1.26680       -4.94220       -0.15290
