11
gdb 2458	6.76626	2.66333	2.19749	4.8999	45.91	-0.2878	0.0351	0.3229	572.5484	0.079525	-380.414967	-380.409899	-380.408954	-380.443814	19.066
O          0.00240        0.01610        0.03820
C         -0.01400        1.20230        0.01420
O         -1.14440        1.96960        0.02530
C         -0.79060        3.33570        0.01940
C         -0.03370        3.83150        1.22600
C          0.70420        3.35600       -0.00040
O          1.09500        2.00000       -0.00440
H         -1.45530        3.95040       -0.57190
H         -0.04600        4.90200        1.39960
H         -0.01350        3.21170        2.11610
H          1.33600        3.98830       -0.60890
