14
gdb 10051	3.53222	1.2526	0.98575	4.7306	62.17	-0.3033	0.0022	0.3055	1116.4474	0.106546	-378.741184	-378.732667	-378.731723	-378.774918	29.016
O          0.10180        1.40200       -0.01920
C          0.04250        0.00080       -0.04350
C         -1.41520       -0.52920        0.00330
C         -1.44200       -2.07630       -0.07500
C         -2.78960       -2.62120       -0.21210
N         -3.85780       -3.04300       -0.33320
C         -2.06080       -0.03490        1.22150
N         -2.50390        0.38920        2.20120
H         -0.18260        1.70690        0.85040
H          0.49060       -0.31500       -0.99090
H          0.61880       -0.45890        0.77370
H         -1.95250       -0.11340       -0.85560
H         -0.84790       -2.39240       -0.93970
H         -0.97100       -2.50590        0.81540
