19
gdb 2409	4.60166	2.25013	1.87851	0.141	72.04	-0.2861	0.106	0.3921	779.3598	0.172606	-273.735711	-273.72876	-273.727816	-273.766102	27.355
C         -0.11430        1.64620        0.16440
C          0.01310        0.12910        0.11850
C          1.13660       -0.58520       -0.70530
C          2.14430       -0.16180        0.40320
C          0.87730       -0.66320        1.15610
C          0.88030       -1.86830        0.15560
C         -0.32530       -2.77460       -0.05030
H          0.83390        2.16660        0.31790
H         -0.54680        2.01930       -0.77110
H         -0.78920        1.94620        0.97420
H         -0.98230       -0.29330       -0.03780
H          1.29060       -0.54030       -1.78610
H          3.04100       -0.78030        0.50210
H          2.39510        0.89560        0.48240
H          0.73020       -0.70900        2.23790
H          1.77910       -2.48830        0.25480
H         -1.27170       -2.24000       -0.16000
H         -0.18890       -3.38820       -0.94800
H         -0.43230       -3.46080        0.79750
