14
gdb 17718	4.96878	2.73028	2.22618	1.7045	63.67	-0.2376	-0.0252	0.2125	629.2788	0.109146	-341.438739	-341.433758	-341.432814	-341.467377	21.306
C         -0.10520        1.58300       -0.01650
C          1.45350        1.30030       -0.02260
C          1.29590        0.16200        1.00930
N          1.85060       -1.02060        0.18860
C          0.65320       -1.92560        0.30020
N         -0.48090       -1.33370        0.26720
C          0.04060        0.04950        0.12550
C          1.25730       -0.01070       -0.81530
H         -0.49560        2.13040        0.84510
H         -0.53340        1.96070       -0.94830
H          2.26190        2.02280       -0.10800
H          1.35410        0.19520        2.09790
H          0.79480       -2.99570        0.39820
H          1.26980       -0.18230       -1.89230
