15
gdb 14290	3.83728	1.77683	1.73446	3.454	60.32	-0.2434	0.0238	0.2672	804.6424	0.119963	-399.820804	-399.813788	-399.812844	-399.852109	26.702
O          0.01890        1.38890        0.06020
C         -0.02830       -0.00060        0.02240
C         -1.35630       -0.73760        0.02240
C         -2.60510        0.05790       -0.31590
C         -2.41980        0.53290       -1.76820
O         -3.17420        1.20650       -2.42840
N         -1.18140        0.07700       -2.17910
C         -0.48000       -0.72850       -1.22310
H         -0.13050        1.71470       -0.83630
H          0.77420       -0.45790        0.59480
H         -1.44650       -1.63650        0.61960
H         -3.51620       -0.54210       -0.24760
H         -2.73760        0.93890        0.31930
H         -0.84530        0.26600       -3.10970
H          0.03500       -1.60410       -1.60160
