16
gdb 10942	6.10977	1.25869	1.16798	3.589	66.02	-0.2394	-0.024	0.2153	1027.7532	0.128522	-383.715392	-383.707642	-383.706698	-383.747683	28.27
C          0.05010        1.54760       -0.04930
C         -0.08070        0.07150        0.12750
C         -1.35410       -0.79350        0.07140
C         -0.65870       -1.82100        1.04870
C         -0.44980       -3.22220        0.53830
O         -0.86680       -4.21430        1.08290
C          0.58180       -0.89750        1.01920
O          0.98360       -0.76860       -0.35000
H          1.06400        1.87300        0.19750
H         -0.15650        1.83260       -1.08710
H         -0.65810        2.08020        0.59330
H         -2.22940       -0.33280        0.53380
H         -1.61620       -1.15990       -0.92460
H         -1.14600       -1.85600        2.02480
H          0.13230       -3.28000       -0.40640
H          1.34790       -0.77700        1.77710
