18
gdb 11308	4.86759	1.16253	1.00152	3.5326	68.69	-0.248	-0.0191	0.2289	1144.161	0.153767	-384.961468	-384.953292	-384.952348	-384.995285	29.733
O         -0.02470        1.44880       -0.00560
C          0.05850        0.03460        0.03100
C          0.61520       -0.55100        1.33980
C          0.05110       -1.97560        1.35170
C         -1.41250       -1.79920        0.85450
C         -1.36540       -0.55360       -0.07930
C         -1.90230       -3.03560        0.14110
O         -2.79150       -3.75580        0.51250
H          0.87020        1.80270        0.00150
H          0.67060       -0.33010       -0.80960
H          1.70790       -0.51770        1.39780
H          0.21250        0.03080        2.17750
H          0.61200       -2.60480        0.64710
H          0.09810       -2.46450        2.32730
H         -2.07650       -1.62520        1.70460
H         -2.08180        0.20320        0.24920
H         -1.61540       -0.80280       -1.11550
H         -1.34400       -3.25290       -0.80370
