22
gdb 10361	2.51261	1.50386	1.14843	2.2746	74.59	-0.2472	0.0735	0.3206	1171.9895	0.197496	-387.337922	-387.327445	-387.326501	-387.373402	37.302
C          0.09430        1.05820        0.73760
C         -0.08140       -0.33110        0.12220
C          0.57530       -0.48580       -1.25190
O          1.98000       -0.21260       -1.13850
C          2.46260        0.85450       -1.92660
C          0.43800       -1.92190       -1.79890
C          0.84090       -2.04140       -3.27040
O          1.19510       -2.81140       -0.98980
H          1.15460        1.29520        0.86230
H         -0.35590        1.83670        0.11040
H         -0.37980        1.11340        1.72220
H          0.34000       -1.09700        0.78180
H         -1.14870       -0.56300        0.01560
H          0.11980        0.22000       -1.96170
H          2.30180        0.68480       -3.00080
H          1.99220        1.80890       -1.65160
H          3.53790        0.92950       -1.74210
H         -0.60770       -2.23440       -1.68710
H          0.76220       -3.08310       -3.59210
H          0.19840       -1.42950       -3.91340
H          1.87820       -1.72110       -3.41350
H          2.06330       -2.39620       -0.90070
