15
gdb 13331	6.1652	1.15814	1.03455	1.1066	62.01	-0.2532	-0.0311	0.2222	1078.6451	0.11888	-399.819369	-399.811821	-399.810877	-399.852785	25.863
O         -0.49470        0.63980        0.77300
C          0.10440        0.94260       -0.22680
C          1.38390        1.75620       -0.23700
C          1.28650        3.01040       -1.11000
C          2.61230        3.81330       -1.23310
N          2.99570        3.70650       -2.65080
C          2.06680        3.05660       -3.21170
O          1.00760        2.61830       -2.48460
H         -0.25690        0.63760       -1.23210
H          1.62880        2.03430        0.79260
H          2.19340        1.12580       -0.63060
H          0.45030        3.63540       -0.78350
H          2.48890        4.86660       -0.96210
H          3.40410        3.40160       -0.59810
H          2.02120        2.80040       -4.26430
