11
gdb 21616	7.04275	1.38238	1.15702	7.8542	59.59	-0.2517	-0.0339	0.2179	928.6222	0.075107	-389.798537	-389.79192	-389.790976	-389.829256	24.051
N          0.02170        1.36120        0.14360
C         -0.03590       -0.00630        0.03800
N         -1.13290       -0.73980        0.04890
C         -0.63570       -2.01340        0.00000
N          0.68300       -2.11750       -0.04800
N          1.05540       -0.81110       -0.01950
C         -1.47490       -3.16750       -0.00850
N         -2.16400       -4.09550       -0.01590
H          0.75080        1.81960       -0.38350
H         -0.88240        1.79200        0.01000
H          2.03380       -0.57450       -0.00050
