14
gdb 5458	3.54222	1.94902	1.25926	1.3853	76.4	-0.1777	0.0111	0.1888	906.8864	0.10809	-341.589486	-341.581897	-341.580953	-341.620859	29.05
N          0.02840        1.41890        0.16620
C          0.03750        0.02800        0.04900
C         -1.08950       -0.79340        0.01770
N         -0.62940       -2.10680       -0.02020
C          0.72870       -2.11880       -0.02500
C          1.17920       -0.81470        0.01890
C         -2.44810       -0.44940        0.02010
C         -3.61380       -0.13100        0.00990
H          0.77520        1.87060       -0.34410
H         -0.86380        1.82540       -0.08500
H         -1.23010       -2.91100       -0.04930
H          1.27810       -3.04610       -0.05720
H          2.21070       -0.49830        0.03850
H         -4.63800        0.14640        0.02300
