19
gdb 19687	5.10024	1.51104	1.37167	1.8331	74.05	-0.2338	0.0828	0.3166	969.3527	0.166743	-327.859748	-327.852636	-327.851692	-327.891038	27.894
C          0.00960        1.57720       -0.02580
C          0.12000        0.04890       -0.00270
C          0.67610       -0.53770       -1.29920
C          0.63850       -2.06770       -1.33360
C         -0.67750       -2.08670       -2.01300
C         -0.34090       -0.61570       -2.47900
C          0.48600       -1.29820       -3.57890
N          0.52730       -2.55390       -2.75560
H          0.98790        2.04180       -0.19150
H         -0.65790        1.92050       -0.82320
H         -0.38290        1.95880        0.92180
H          0.76820       -0.25320        0.83060
H         -0.86310       -0.39490        0.20130
H          1.63610       -0.06230       -1.54370
H          1.05590       -2.77080       -0.62360
H         -1.58020       -2.66910       -1.88640
H         -1.03370        0.20030       -2.67830
H         -0.07880       -1.50760       -4.49100
H          1.46280       -0.87000       -3.83570
