12
gdb 3673	7.83458	2.03311	1.63058	1.9537	52.61	-0.247	0.0004	0.2474	716.0947	0.090286	-360.520081	-360.513792	-360.512848	-360.550356	22.655
C          0.05700        1.49060        0.04440
C         -0.09230        0.01290       -0.03470
C         -1.12440       -0.83460        0.22100
C         -0.56980       -2.11210       -0.06460
O         -1.22160       -3.28030        0.04280
N          0.67930       -2.04920       -0.45670
O          0.98760       -0.68220       -0.43770
H          0.85200        1.76550        0.74510
H          0.32020        1.90870       -0.93270
H         -0.87610        1.94700        0.37920
H         -2.11990       -0.60240        0.55760
H         -0.60680       -3.98130       -0.21270
