18
gdb 13621	3.94629	1.15395	1.04195	1.3631	64.58	-0.2611	0.0548	0.316	1172.6063	0.151814	-422.048282	-422.039226	-422.038282	-422.082455	32.506
C          0.34520        1.62270       -0.37160
C          0.14940        0.16160       -0.06320
O          1.31890       -0.66270        0.04870
C          0.49320       -0.49660        1.20680
C          1.12700        0.19050        2.39310
O          0.09350        0.53870        3.29530
C          2.13250       -0.73260        3.09070
O          2.54550       -0.16310        4.33160
H          1.15100        2.06290        0.21870
H          0.59220        1.75250       -1.43050
H         -0.57750        2.17700       -0.17040
H         -0.65030       -0.31160       -0.63720
H         -0.08320       -1.38200        1.48450
H          1.66910        1.08860        2.05180
H          0.52040        0.59670        4.16140
H          1.64480       -1.67830        3.34940
H          2.98180       -0.94810        2.43050
H          3.14130        0.56900        4.13920
