15
gdb 21316	7.01851	1.1401	1.04814	2.2211	63.52	-0.251	0.0066	0.2577	1113.6865	0.120463	-395.988737	-395.981183	-395.980239	-396.021735	25.955
C         -0.07260        1.34820       -0.01490
O         -0.04410       -0.05860        0.00550
C          0.67410       -0.59680       -1.08730
C          0.60330       -2.08700       -1.02890
N          1.63590       -2.82760       -0.65180
N          1.13450       -4.08060       -0.73600
C         -0.14830       -4.04420       -1.15210
N         -0.51960       -2.79750       -1.35190
H          0.93940        1.78080        0.04260
H         -0.55820        1.73500       -0.92530
H         -0.64550        1.67420        0.85640
H          0.24010       -0.24840       -2.03820
H          1.72920       -0.28600       -1.05700
H          1.71430       -4.87050       -0.50500
H         -0.75050       -4.92910       -1.29450
