19
gdb 19162	3.80021	1.53315	1.2835	1.0947	71.21	-0.2232	0.0685	0.2917	1001.5534	0.164714	-365.003407	-364.99508	-364.994136	-365.036047	31.624
O          0.12620        1.24490        0.78530
C         -0.12030       -0.13140        0.55150
C         -1.55070       -0.44510        0.12140
C         -2.66710        0.39770        0.69060
C         -2.27950        0.51410       -0.77140
N         -1.65950       -1.86520       -0.13790
C         -2.07410       -2.73620        0.96180
C         -2.96080       -2.51190       -0.21230
H          0.23360        1.67570       -0.06760
H          0.56830       -0.54930       -0.19630
H          0.08410       -0.64010        1.50080
H         -3.62130       -0.05760        0.93130
H         -2.37290        1.20870        1.34650
H         -1.78090        1.42170       -1.09560
H         -2.95300        0.09040       -1.50890
H         -1.51790       -3.66300        1.06900
H         -2.37170       -2.26410        1.89620
H         -3.85920       -1.92100       -0.04980
H         -3.05590       -3.26860       -0.98630
