16
gdb 2700	15.2928	0.85536	0.82676	4.7237	62.62	-0.2675	0.0355	0.303	1323.7647	0.135647	-325.783642	-325.775253	-325.774309	-325.817052	27.808
C          0.00770        1.38330        0.00920
O          0.00550       -0.02510        0.00190
C         -1.28920       -0.57420        0.01130
C         -1.15870       -2.09230        0.00210
C         -2.53740       -2.77820        0.01160
C         -2.43850       -4.23590        0.00310
N         -2.34800       -5.38770       -0.00370
H          1.05080        1.70750        0.00100
H         -0.50090        1.79720       -0.87590
H         -0.48410        1.78790        0.90790
H         -1.84680       -0.24130        0.90540
H         -1.86370       -0.23210       -0.86850
H         -0.59630       -2.39960       -0.88450
H         -0.57960       -2.40880        0.87470
H         -3.10920       -2.47730        0.89780
H         -3.12590       -2.46820       -0.86030
