20
gdb 6453	4.18499	1.26807	1.16822	2.8647	75.85	-0.2444	-0.0162	0.2282	1115.5915	0.174985	-349.016177	-349.007211	-349.006267	-349.049661	33.052
C         -0.91520        1.01890       -0.44630
C          0.13470       -0.05540       -0.20770
C          1.42650       -0.03350       -1.06880
C          2.28870       -0.32690        0.21150
C          3.55130        0.49350        0.42170
C          1.02140        0.04400        1.06300
C          2.56070       -1.80820        0.31720
O          3.63610       -2.30430        0.54030
H         -0.47030        2.01960       -0.39810
H         -1.38090        0.90810       -1.43190
H         -1.71110        0.97130        0.30530
H         -0.33560       -1.04340       -0.26110
H          1.49790       -0.74520       -1.89640
H          1.64900        0.96610       -1.45460
H          3.33300        1.56270        0.34150
H          3.98440        0.30100        1.40790
H          4.31290        0.23840       -0.32140
H          1.10040        1.07110        1.43230
H          0.77510       -0.60690        1.90690
H          1.66100       -2.45240        0.16930
