15
gdb 15785	4.64125	1.20413	1.05374	4.9492	61.38	-0.2868	0.032	0.3188	1079.1138	0.117814	-399.781122	-399.77295	-399.772006	-399.814523	28.706
O          1.01190        1.50570       -0.41560
C          0.04110        0.59860        0.07120
C         -0.07330       -0.64770       -0.83550
C         -0.26140       -0.29490       -2.23910
N         -0.42660       -0.03280       -3.35170
C          0.36220        0.25030        1.51280
C          0.14730       -1.05290        2.15150
O          1.44930       -0.66680        1.70120
H          1.88000        1.10250       -0.29020
H         -0.90650        1.14780        0.04270
H          0.83550       -1.25100       -0.72940
H         -0.91700       -1.27160       -0.52150
H          0.41490        1.13070        2.15380
H          0.02340       -1.09670        3.23210
H         -0.31090       -1.87350        1.60410
