17
gdb 6347	3.82492	1.25259	0.99458	2.3568	67.22	-0.2424	-0.0308	0.2116	1181.8644	0.139912	-401.059323	-401.049858	-401.048914	-401.094895	31.946
C         -0.07990        1.40060       -0.73990
N          0.07620       -0.02140       -0.97190
C          1.09160       -0.73440       -0.42830
O          1.92420       -0.28680        0.34030
C          1.10970       -2.23130       -0.79570
C          0.75000       -2.61630       -2.22630
C          1.58770       -3.70690       -2.85540
O         -0.16800       -2.09330       -2.82610
H          0.60750        1.68680        0.05680
H          0.15580        1.98540       -1.63710
H         -1.10520        1.63330       -0.43410
H         -0.47280       -0.48550       -1.68460
H          2.09120       -2.61450       -0.51360
H          0.37490       -2.73320       -0.15010
H          1.61610       -4.58980       -2.20690
H          1.18890       -3.97220       -3.83490
H          2.62260       -3.35960       -2.95760
