17
gdb 10074	2.83322	1.42649	1.0586	3.7447	65.08	-0.2698	0.035	0.3048	1113.2565	0.140649	-400.998882	-400.989691	-400.988747	-401.0334	31.677
C         -0.00180        1.33840        0.05150
O          0.07510       -0.07440       -0.00720
C          0.70510       -0.58940       -1.17360
C          2.19810       -0.78790       -0.88450
O          2.38540       -1.62230        0.23990
C          0.01850       -1.92870       -1.49300
C         -1.40540       -1.76680       -1.76990
N         -2.52750       -1.62870       -2.00760
H          0.99000        1.81200        0.03640
H         -0.59620        1.73730       -0.78170
H         -0.49630        1.58990        0.99200
H          0.57310        0.10120       -2.01870
H          2.69650       -1.26780       -1.73340
H          2.66840        0.19770       -0.74020
H          1.82510       -1.25370        0.93510
H          0.50010       -2.39470       -2.35930
H          0.15800       -2.60300       -0.64300
