17
gdb 9660	4.70156	1.11593	1.04252	1.3228	67.22	-0.2616	-0.0342	0.2274	1141.2349	0.140337	-400.981634	-400.972784	-400.97184	-401.015454	31.338
C          0.06140        1.57170       -0.17380
C          0.00960        0.08200        0.06730
N          1.28820       -0.67210        0.06470
C          0.52330       -0.60120        1.30610
C          1.18200        0.12870        2.45580
O          2.17960       -0.68030        3.05470
C         -1.14100       -0.63580       -0.55770
O         -2.03670       -0.10650       -1.16360
H          1.00140        1.99600        0.17980
H         -0.02950        1.77590       -1.24420
H         -0.77130        2.07330        0.32720
H          1.17380       -1.57860       -0.38720
H         -0.00470       -1.50460        1.61270
H          1.59400        1.08690        2.11500
H          0.44410        0.33640        3.23720
H          2.83970       -0.85310        2.37370
H         -1.10030       -1.74560       -0.42660
