16
gdb 9334	5.19802	0.93311	0.81059	4.7012	65.54	-0.2343	-0.0642	0.17	1340.898	0.12948	-417.060971	-417.052036	-417.051092	-417.095395	30.826
O         -0.00020        1.36900       -0.31770
C         -0.01920       -0.01890        0.00370
C         -1.47680       -0.42700        0.13470
N         -2.18160       -0.10950       -1.09160
C         -3.42070       -0.61740       -1.35680
N         -3.97980       -1.52120       -0.64450
C         -4.05860       -0.04020       -2.60280
O         -5.13660       -0.39080       -3.00390
H          0.90360        1.62440       -0.52240
H          0.46140       -0.61230       -0.78780
H          0.50240       -0.22000        0.95050
H         -1.56140       -1.50130        0.31780
H         -1.93100        0.08390        0.99630
H         -1.91780        0.76820       -1.51420
H         -4.86950       -1.76590       -1.08350
H         -3.46630        0.73880       -3.13510
