16
gdb 15534	2.7069	2.13119	1.40008	3.5357	67.68	-0.2286	-0.0272	0.2014	908.9344	0.128926	-383.751057	-383.743118	-383.742174	-383.783877	28.039
C         -0.14970        1.52220        0.01730
C         -0.02360        0.03270        0.02000
C          0.13940       -0.80130       -1.00390
C          0.19940       -2.22240       -0.52590
O         -0.06450       -2.14680        0.87590
C         -0.06030       -0.80250        1.29420
C          1.14670       -0.48620        2.18240
O          2.09870       -1.20370        2.31930
H          0.66630        2.00180        0.57120
H         -0.13810        1.91570       -1.00200
H         -1.08410        1.84140        0.49550
H          0.21930       -0.52110       -2.04710
H         -0.55710       -2.86610       -0.99700
H          1.18270       -2.68460       -0.70350
H         -0.96450       -0.59100        1.89310
H          1.07480        0.49980        2.70160
