18
gdb 16341	3.15452	1.85565	1.4504	1.8903	67.35	-0.2459	0.0749	0.3208	930.3804	0.152812	-384.908599	-384.900511	-384.899567	-384.941117	30.329
C          0.18580        1.52830       -0.07840
C         -0.06180        0.01550        0.02510
C          0.49770       -0.56230        1.28630
O          1.93230       -0.69660        1.40120
C          1.10940       -1.85560        1.64180
C          0.64850       -1.76780        3.09610
C          0.03050       -0.35710        2.74750
O          0.53330        0.77530        3.40120
H          1.25880        1.73960       -0.11050
H         -0.26940        1.93700       -0.98490
H         -0.23260        2.05540        0.78420
H         -1.13920       -0.19050       -0.00460
H          0.38640       -0.50100       -0.83120
H          1.30360       -2.72690        1.02680
H         -0.11050       -2.50590        3.36720
H          1.44580       -1.76450        3.84340
H         -1.05670       -0.33970        2.85930
H          1.47370        0.80650        3.18100
