18
gdb 16742	4.2404	1.44643	1.3742	2.9804	71.26	-0.2464	-0.0176	0.2288	961.3338	0.15488	-347.813468	-347.80608	-347.805136	-347.845836	27.745
O         -0.63510        0.57950        0.02180
C         -0.10890        1.66220        0.05310
C          1.38530        1.89440       -0.00320
C          1.79650        2.77770       -1.22720
C          2.21260        4.13320       -0.67680
C          1.21690        4.88920        0.16720
C          2.28180        4.05140        0.83010
C          1.91100        2.64240        1.26660
H         -0.72780        2.58740        0.12850
H          1.83370        0.90130       -0.07740
H          2.64180        2.30830       -1.74000
H          0.98820        2.85250       -1.96490
H          2.94040        4.70580       -1.24110
H          1.32850        5.96670        0.22050
H          0.18320        4.55830        0.19680
H          3.06100        4.56330        1.38390
H          1.17390        2.63300        2.07880
H          2.79730        2.12450        1.64610
