18
gdb 19480	4.55907	1.55078	1.49538	0.9742	67.63	-0.2273	0.0837	0.311	921.7802	0.154866	-384.899054	-384.891937	-384.890993	-384.930425	27.349
C         -0.15080        1.34360       -0.06910
O          0.30410        0.01660        0.09750
C          0.78950       -0.55420       -1.08490
C          1.11080       -2.06950       -0.90770
C         -0.42360       -2.31960       -1.07610
C         -0.25730       -1.15650       -2.08080
O          0.59100       -1.69440       -3.10500
C          1.59800       -2.38880       -2.32260
H          0.64660        1.99680       -0.45490
H         -1.00820        1.40520       -0.75470
H         -0.45860        1.70450        0.91500
H          1.56270        0.07720       -1.54790
H          1.68910       -2.44020       -0.06290
H         -0.75120       -3.28160       -1.47660
H         -0.98540       -2.03900       -0.18720
H         -1.07900       -0.60370       -2.53330
H          2.59090       -1.98440       -2.55070
H          1.58570       -3.45960       -2.55810
