11
gdb 4750	7.24366	1.34436	1.13392	2.8455	58.67	-0.2435	-0.0806	0.163	937.7311	0.072361	-434.572854	-434.566354	-434.56541	-434.603695	23.308
O          0.10410        1.32970       -0.05470
C          0.06610       -0.01080       -0.06140
C         -0.02890       -0.83980       -1.14570
O         -0.03350       -2.11680       -0.67560
C          0.05840       -1.99910        0.66330
C          0.08090       -3.19740        1.50900
O          0.02170       -4.32940        1.09390
N          0.12080       -0.75830        1.08050
H          0.17290        1.60960        0.86650
H         -0.09530       -0.69700       -2.20880
H          0.15920       -2.94640        2.58510
