15
gdb 2637	13.60257	0.82635	0.81607	0.5442	59.68	-0.2532	-0.037	0.2161	1304.5407	0.121977	-345.673444	-345.665157	-345.664213	-345.707696	26.768
O         -0.68920        0.66860        0.59960
C          0.11300        0.90800       -0.26450
C          1.27910        1.86180       -0.12450
C          1.25590        2.95440       -1.20680
C          2.49010        3.87020       -1.14470
C          2.40160        5.00030       -2.14680
O          3.22320        5.23690       -2.99320
H          0.03750        0.42290       -1.26670
H          1.26090        2.29110        0.88160
H          2.20240        1.27330       -0.22810
H          1.19990        2.48810       -2.19850
H          0.34550        3.55660       -1.09460
H          2.55360        4.31990       -0.14320
H          3.41420        3.31340       -1.32640
H          1.48210        5.62540       -2.05010
