19
gdb 1292	5.06464	1.37057	1.14452	2.3094	64.84	-0.2571	0.0766	0.3337	1066.9097	0.169552	-348.051405	-348.042453	-348.041508	-348.085275	31.621
C         -0.24510        1.52390        0.07650
C         -0.08970        0.01230       -0.04500
C          0.83170       -0.56200        1.03430
O         -1.40370       -0.53560        0.03540
C         -1.54320       -1.87840       -0.39360
C         -3.03660       -2.12490       -0.55520
O         -3.60820       -1.22420       -1.48170
H          0.72530        2.02040       -0.01490
H         -0.90600        1.90610       -0.70630
H         -0.67680        1.78480        1.04800
H          0.32960       -0.22920       -1.03640
H          0.42460       -0.35540        2.02940
H          0.95350       -1.64390        0.93010
H          1.82580       -0.10890        0.96610
H         -1.03310       -2.02290       -1.35940
H         -1.11570       -2.58700        0.33220
H         -3.20560       -3.13830       -0.93430
H         -3.52030       -2.04860        0.43210
H         -3.27990       -0.35460       -1.22250
