11
gdb 21617	7.43451	1.37736	1.16277	2.9842	61.54	-0.2468	-0.0326	0.2142	935.297	0.07236	-393.552184	-393.545393	-393.544449	-393.582962	25.178
N         -0.00330        1.33790        0.12950
C         -0.04990       -0.01290        0.04400
N         -1.10590       -0.77880        0.04450
C         -0.52840       -2.02940        0.00110
N          0.78620       -2.04840       -0.02990
O          1.11390       -0.67420       -0.00060
C         -1.28220       -3.23150       -0.01260
C         -1.92920       -4.24370       -0.02400
H          0.84510        1.78920       -0.17220
H         -0.86400        1.81690       -0.07980
H         -2.49900       -5.14010       -0.03350
