17
gdb 15865	2.56241	2.08445	1.35133	3.619	68.04	-0.2763	0.0223	0.2986	937.8222	0.142086	-363.871888	-363.863753	-363.862808	-363.904289	30.183
C         -0.01460        1.57560       -0.13000
C          0.05890        0.06490        0.01240
C          0.98530       -0.74780       -0.93260
C          1.30840       -1.69570        0.24880
O          2.57560       -2.24720        0.40380
C          0.81060       -0.56930        1.24130
C          1.92990        0.22200        1.71990
N          2.86400        0.81900        2.05300
H          0.98000        2.02870       -0.07700
H         -0.45890        1.84570       -1.09370
H         -0.62950        2.02190        0.65850
H         -0.94860       -0.36260       -0.00050
H          0.55420       -1.18440       -1.83550
H          1.86980       -0.16260       -1.20850
H          0.60360       -2.53030        0.28850
H          3.22020       -1.53130        0.46550
H          0.20060       -0.89150        2.08810
