15
gdb 4116	4.2511	1.37129	1.13282	2.1986	61.51	-0.257	-0.0152	0.2418	1011.8116	0.116971	-436.869157	-436.860931	-436.859987	-436.902113	30.097
O         -0.08410        1.32690        0.50540
N         -0.00270       -0.07220        0.50190
C         -1.04140       -0.59470       -0.00150
C         -2.37940       -0.13750       -0.53890
C         -2.84470       -1.63420       -0.44370
O         -3.45700       -2.21810       -1.54980
C         -1.35750       -2.06750       -0.17200
O         -0.84040       -2.61950       -1.37800
H          0.74050        1.58120        0.93460
H         -2.91720        0.60410        0.05620
H         -2.32790        0.21350       -1.57490
H         -3.48140       -1.80090        0.42910
H         -2.74180       -2.44430       -2.16070
H         -1.16180       -2.72820        0.68010
H          0.09460       -2.39770       -1.43340
