13
gdb 20493	5.05768	2.01818	1.47098	2.386	59.14	-0.2569	-0.0214	0.2355	780.5164	0.097747	-398.576763	-398.570825	-398.569881	-398.607333	21.848
C         -0.04500        1.52580        0.09630
O          1.22330        1.93330       -0.45150
C          2.12900        0.83440       -0.62600
C          1.27290       -0.37270       -0.40180
N          1.41270       -1.66520       -0.49140
O          0.15970       -2.16410       -0.10550
C         -0.66590       -1.13650        0.19650
C         -0.01170        0.03460        0.02560
H         -0.14430        1.89740        1.12640
H         -0.83960        1.98280       -0.50490
H          2.55690        0.88390       -1.63340
H          2.95230        0.89360        0.09990
H         -1.65980       -1.42010        0.50470
