17
gdb 13781	3.2529	1.56305	1.38678	4.9309	66.36	-0.2417	0.0193	0.261	965.6047	0.140288	-400.988625	-400.979924	-400.97898	-401.021923	30.95
C         -0.18820        1.45290       -0.13590
C         -0.05110       -0.07030       -0.07200
O         -1.30530       -0.72180       -0.18480
C          0.85030       -0.61310       -1.16850
C          0.72060       -2.02980       -1.65500
N          0.35670       -0.91490       -2.49750
C         -0.90300       -0.70530       -3.03200
O         -1.59240       -1.56500       -3.52070
H          0.79060        1.93750       -0.06470
H         -0.66190        1.76200       -1.07210
H         -0.79870        1.81910        0.69760
H          0.43050       -0.33770        0.88480
H         -1.93930       -0.27200        0.38110
H          1.84590       -0.17070       -1.15230
H          1.60970       -2.58310       -1.94490
H         -0.09980       -2.61880       -1.25670
H         -1.16620        0.36920       -3.05500
