12
gdb 1418	4.43147	1.73713	1.31906	4.1997	52.59	-0.3	-0.0218	0.2782	852.8656	0.088119	-360.542928	-360.535412	-360.534468	-360.575597	24.694
C          0.05550        1.73890        0.20180
C         -0.01080        0.23690       -0.06380
O          0.58490       -0.01340       -1.34300
C          0.09960       -1.05240       -2.07030
O          0.54290       -1.33930       -3.13640
C          0.69440       -0.53510        0.97560
N          1.23360       -1.13890        1.79930
H          1.09340        2.07740        0.19240
H         -0.49850        2.26590       -0.57790
H         -0.38450        1.96860        1.17500
H         -1.05700       -0.09650       -0.07340
H         -0.73960       -1.57380       -1.57150
