17
gdb 1656	4.74889	1.54501	1.4705	2.928	60.84	-0.2628	-0.0244	0.2384	911.7875	0.145893	-346.87843	-346.869837	-346.868893	-346.912513	30.021
C         -0.08240        1.59190       -0.08540
C          0.04250        0.05620       -0.03810
C         -1.33520       -0.61810        0.04730
C          0.78420       -0.41190       -1.28130
O          0.28780       -0.38500       -2.38920
C          2.20980       -0.91550       -1.12510
O          2.77620       -1.25040       -2.35380
H          0.89770        2.07760       -0.12570
H         -0.64990        1.89700       -0.96920
H         -0.60330        1.95590        0.80500
H          0.63930       -0.21980        0.84050
H         -1.91680       -0.39920       -0.85200
H         -1.24580       -1.70530        0.13580
H         -1.88560       -0.25110        0.91860
H          2.79600       -0.13660       -0.60770
H          2.18470       -1.77980       -0.43770
H          2.06940       -1.09510       -3.00200
