14
gdb 19773	3.27194	2.98857	2.50242	0.575	54.89	-0.229	0.0662	0.2952	630.4394	0.109699	-419.64088	-419.635552	-419.634608	-419.67018	21.549
C         -0.00490        1.52430       -0.08340
O          1.26280        2.08430        0.27240
C          2.21960        1.13590        0.64840
C          2.24740       -0.21650       -0.03470
O          1.07950       -0.49480       -0.77880
C          0.03950        0.00600        0.04930
O          0.39760       -0.32560        1.38350
C          1.79230       -0.10350        1.40830
H         -0.77640        1.93450        0.58050
H         -0.24070        1.80160       -1.11870
H          3.15800        1.61380        0.90690
H          3.13150       -0.71580       -0.40850
H         -0.90310       -0.47940       -0.20990
H          2.28190       -0.50490        2.28570
