17
gdb 15795	3.01828	1.48208	1.12114	3.4328	65.69	-0.2524	-0.0012	0.2511	1071.0375	0.141157	-400.994114	-400.985592	-400.984648	-401.028164	29.793
C         -0.13390        1.62610        0.18080
C          0.03320        0.11760        0.01990
O          0.75470       -0.38670        1.16160
C          2.00510       -0.85820        0.98660
O          2.66690       -1.27950        1.88560
C         -1.29820       -0.60660       -0.07160
C         -1.44940       -2.02590        0.32170
N         -2.04910       -0.95360        1.14070
H          0.84000        2.12060        0.23160
H         -0.68680        2.03650       -0.66930
H         -0.68890        1.85350        1.09500
H          0.61660       -0.09480       -0.88750
H          2.33700       -0.80930       -0.06880
H         -1.92120       -0.22430       -0.87870
H         -2.16090       -2.65760       -0.20200
H         -0.58050       -2.54360        0.71630
H         -1.45250       -0.79900        1.95160
