16
gdb 11662	3.07287	1.9904	1.55008	2.6324	65.36	-0.2517	-0.0079	0.2438	874.3364	0.128962	-383.691256	-383.683653	-383.682708	-383.723341	28.051
C         -0.02740        1.52830        0.02010
C         -0.01420       -0.00580        0.03430
C         -1.38560       -0.58690       -0.09990
C         -1.89580       -2.05060       -0.00290
C         -3.16100       -1.16500        0.03120
O         -2.43160       -0.22460        0.92040
C         -2.54330       -0.31760       -1.11050
O         -2.81430        0.30110       -2.08670
H          0.98590        1.92430        0.12750
H         -0.44640        1.90550       -0.91720
H         -0.63680        1.91540        0.84100
H          0.59140       -0.39280       -0.79460
H          0.44260       -0.38010        0.95840
H         -1.73950       -2.72070       -0.85250
H         -1.67620       -2.51330        0.96100
H         -4.18630       -1.41340        0.29410
