14
gdb 14317	5.58036	1.65379	1.3522	2.7871	65.27	-0.2451	-0.0544	0.1907	858.4826	0.108032	-382.526091	-382.519846	-382.518902	-382.556535	23.929
O          0.03890       -0.00650        0.00220
C          0.01120        1.19700       -0.01790
C         -1.28160        2.07550       -0.00070
C         -0.75400        3.44790       -0.40370
O         -0.78930        4.62350        0.48070
C          0.66120        4.78520        0.36030
C          0.71430        3.37000       -0.14620
C          1.17680        2.14000        0.07470
H         -2.06790        1.65800       -0.63190
H         -1.64070        2.10040        1.03410
H         -1.06270        3.74660       -1.41290
H          0.91710        5.56840       -0.36440
H          1.14770        4.98950        1.31890
H          2.15300        1.82100        0.41490
