16
gdb 9537	2.89882	1.93119	1.53155	2.2531	60.92	-0.234	-0.0377	0.1963	876.3436	0.128937	-420.8768	-420.868642	-420.867698	-420.910148	29.827
O          0.03200        1.37390        0.01900
C          0.04450       -0.04650       -0.04520
C         -1.39940       -0.54090       -0.07300
O         -2.09950        0.05110       -1.14450
C         -1.69960       -2.06140        0.04810
C         -2.51750       -1.83090        1.36100
C         -2.09410       -0.35830        1.30700
O         -2.15520        0.57630        2.05970
H         -0.40630        1.61220        0.84810
H          0.55240       -0.31670       -0.97720
H          0.59950       -0.49170        0.79370
H         -1.77930        0.96420       -1.18390
H         -2.27560       -2.44000       -0.79590
H         -0.80730       -2.67660        0.18370
H         -3.59760       -1.96000        1.24140
H         -2.20470       -2.36980        2.25920
