18
gdb 11968	2.89022	1.9358	1.74717	1.6694	67.37	-0.2496	0.0803	0.3299	873.1768	0.151351	-384.907018	-384.898721	-384.897777	-384.939408	30.955
C         -0.22160        1.56290        0.08800
C          0.01120        0.05960        0.05460
C         -1.21780       -0.72270       -0.38670
O          1.17120       -0.26260       -0.78060
C          1.87530       -0.90510        0.30180
C          0.75010       -0.54640        1.26010
C          0.74230       -0.20430        2.67890
O          0.17210       -1.43300        2.19220
H          0.67820        2.08950        0.41750
H         -0.48210        1.92320       -0.91230
H         -1.04410        1.81580        0.76550
H         -1.52110       -0.40550       -1.38930
H         -1.00980       -1.79510       -0.40880
H         -2.05230       -0.55150        0.30030
H          2.00430       -1.98340        0.14290
H          2.85310       -0.44670        0.49370
H          1.65170       -0.31500        3.26820
H          0.02580        0.52080        3.06220
