13
gdb 6250	5.15659	1.16892	1.07456	3.7649	57.39	-0.2737	-0.0945	0.1793	1071.8133	0.092167	-435.765726	-435.757287	-435.756343	-435.799944	27.968
C          0.36690        1.09350       -0.13980
C         -0.51640       -0.06070        0.23390
N         -1.18700       -0.28100        1.27170
O         -0.67480       -1.01150       -0.79500
C          0.39110       -1.74540       -1.19100
O          1.50180       -1.68680       -0.74860
C         -0.06460       -2.69220       -2.31450
O          0.70290       -3.43110       -2.85980
H          1.39050        0.74260       -0.29190
H          0.02140        1.54160       -1.07710
H          0.35670        1.85230        0.64440
H         -1.06670        0.47680        1.94330
H         -1.14150       -2.62610       -2.56420
