13
gdb 4286	3.93214	1.86878	1.26675	5.7573	63.27	-0.2135	-0.0083	0.2052	873.4745	0.097613	-398.661199	-398.654647	-398.653703	-398.691715	25.38
O         -0.13520        1.34730        0.01080
C          0.04010        0.00580        0.00270
C          1.22160       -0.66170       -0.00740
C          1.27320       -2.12230       -0.01510
O          2.32030       -2.76160       -0.02550
C         -0.05370       -2.76000       -0.01170
C         -1.18870       -2.03310       -0.00150
N         -1.15380       -0.65720        0.00590
H          0.72970        1.77160        0.00830
H          2.15890       -0.11670       -0.00990
H         -0.09510       -3.84170       -0.01760
H         -2.18150       -2.46590        0.00150
H         -1.99930       -0.11090        0.01350
