11
gdb 3893	5.82783	2.78506	1.88448	5.3011	55.5	-0.228	-0.0402	0.1878	610.7104	0.081491	-339.459612	-339.454352	-339.453408	-339.488597	19.748
O          0.03180       -0.07200        0.00320
C         -0.03330        1.15070        0.00990
C         -1.26080        1.93210        0.03030
C         -1.19010        3.28620        0.03600
N          0.01070        3.92400        0.02310
N          1.20100        3.30000        0.00400
C          1.17480        2.00220       -0.00200
H         -2.21690        1.42450        0.04070
H         -2.05740        3.93750        0.05090
H          0.07160        4.92880        0.02720
H          2.14120        1.50680       -0.01740
