17
gdb 7086	5.62711	1.02538	0.94163	0.8164	71.09	-0.2253	-0.0086	0.2167	1246.6179	0.142244	-397.224099	-397.215199	-397.214254	-397.25814	31.694
C         -0.03370        1.39910       -0.46580
C         -0.40490       -0.07530       -0.25060
N          0.59690       -0.78600        0.52360
C          0.47770       -0.83370        1.79330
N         -0.50050       -0.33230        2.60650
N          1.48720       -1.56470        2.46680
C          1.71200       -1.69550        3.80300
O          1.04040       -1.21900        4.69980
H          0.95250        1.47540       -0.93240
H         -0.76420        1.89480       -1.11350
H          0.00640        1.94560        0.48280
H         -1.41270       -0.14510        0.19300
H         -0.47400       -0.56510       -1.22860
H         -1.07760        0.40330        2.23960
H         -0.31930       -0.35110        3.60280
H          2.13950       -1.98720        1.82200
H          2.60870       -2.30980        4.00190
