24
gdb 6837	2.95029	1.40002	1.24686	0.0838	85.13	-0.2751	0.0811	0.3562	1166.8771	0.222531	-314.277387	-314.267825	-314.266881	-314.310941	36.658
C          0.06880        1.61770        0.05060
C         -0.09590        0.09520       -0.02690
C          0.67080       -0.52020       -1.19180
C          2.22360       -0.53790       -1.16970
C          2.18240       -1.92640       -1.85830
C          0.68750       -2.07610       -1.42860
C          0.55620       -2.89630       -0.14120
C         -0.27700       -2.59500       -2.49130
H          1.12120        1.89670        0.17040
H         -0.29850        2.10220       -0.86110
H         -0.48450        2.03690        0.89690
H          0.23860       -0.35290        0.91690
H         -1.16250       -0.15010       -0.12090
H          0.33570       -0.04220       -2.12220
H          2.74830        0.26750       -1.68900
H          2.61480       -0.59660       -0.14860
H          2.28550       -1.84690       -2.94480
H          2.87890       -2.69020       -1.50030
H          1.25580       -2.56540        0.63310
H         -0.45540       -2.83430        0.27500
H          0.76700       -3.95280       -0.34350
H         -0.08700       -3.65090       -2.71880
H         -1.31850       -2.51390       -2.15690
H         -0.18110       -2.03010       -3.42480
