14
gdb 9038	4.95793	0.86788	0.76306	2.1667	81.45	-0.247	-0.0442	0.2028	1410.4076	0.10351	-345.360142	-345.351222	-345.350278	-345.394422	30.793
C         -0.06170        1.51140        0.05760
C          0.03790       -0.03370       -0.00930
C         -1.38370       -0.61480        0.01390
O         -1.87910       -1.12740        0.97890
C          0.73640       -0.48560       -1.20210
C          1.28630       -0.87560       -2.20790
C          1.91080       -1.30670       -3.33700
C          2.46470       -1.69020       -4.33900
H          0.93680        1.95270        0.02490
H         -0.63410        1.90080       -0.78920
H         -0.55360        1.81280        0.98610
H          0.54310       -0.40390        0.89010
H         -1.93630       -0.49440       -0.94380
H          2.95260       -2.02670       -5.22000
