24
gdb 10218	2.15308	1.15398	0.81374	1.3365	82.04	-0.2609	0.0809	0.3418	1496.4433	0.221579	-351.410757	-351.399876	-351.398931	-351.447203	38.566
C          0.67330        1.57030       -0.01370
C          0.38510        0.06530       -0.01570
C          0.82690       -0.67640        1.26470
C         -0.11140       -0.35340        2.44660
C          0.46140       -0.68840        3.82750
C          0.91020       -2.19700        1.02540
C          2.14760       -2.64600        0.25660
O          2.07350       -4.05690        0.10380
H          1.74740        1.76440        0.08500
H          0.33710        2.03550       -0.94580
H          0.16890        2.08700        0.80890
H         -0.68980       -0.10630       -0.16590
H          0.88190       -0.38070       -0.88520
H          1.83350       -0.31610        1.53110
H         -0.36410        0.71290        2.42700
H         -1.05880       -0.88970        2.29780
H         -0.25220       -0.43860        4.61910
H          0.70200       -1.75140        3.92920
H          1.38020       -0.12260        4.01910
H          0.90930       -2.73670        1.97850
H          0.01860       -2.53410        0.48080
H          2.19990       -2.14790       -0.72420
H          3.05220       -2.35430        0.81610
H          2.84650       -4.34630       -0.38930
