16
gdb 10156	2.82216	1.33848	0.95273	3.4738	68.92	-0.2502	-0.0284	0.2219	1196.0892	0.126452	-383.696972	-383.687608	-383.686664	-383.73176	31.724
C         -0.04640        1.41280        0.01280
O         -0.00180        0.00340       -0.00120
C          0.71830       -0.51600       -1.09110
C          0.65350       -2.04810       -0.98890
C         -0.81500       -2.50390       -1.02080
O         -1.32010       -3.21480       -0.19950
C          1.36100       -2.67470       -2.09840
C          1.90400       -3.18470       -3.04180
H          0.96160        1.84930        0.08520
H         -0.53200        1.81310       -0.89050
H         -0.62590        1.70990        0.88930
H          0.28090       -0.18840       -2.04940
H          1.76840       -0.18580       -1.07950
H          1.07040       -2.36650       -0.02780
H         -1.37640       -2.12300       -1.90330
H          2.39910       -3.64560       -3.86080
