15
gdb 86	6.14183	5.17679	3.79297	0.1068	52.92	-0.2633	0.0893	0.3526	439.1643	0.137025	-196.409349	-196.403398	-196.402453	-196.437676	22.258
C         -0.03910        1.50460        0.04980
C          0.00990       -0.01110        0.01250
C         -1.24170       -0.66660       -0.53990
C          1.33800       -0.66900       -0.27400
C          0.75130       -0.72220        1.11860
H          0.88630        1.92490        0.45580
H         -0.18180        1.92050       -0.95490
H         -0.86830        1.85820        0.67440
H         -1.43570       -0.34340       -1.56980
H         -1.15330       -1.75760       -0.54430
H         -2.12220       -0.40570        0.05950
H          1.34400       -1.58240       -0.86010
H          2.20200       -0.03330       -0.43930
H          1.21950       -0.12250        1.89250
H          0.36150       -1.67150        1.47170
