15
gdb 4798	6.85343	1.34147	1.13788	2.5329	64.13	-0.2145	0.0302	0.2447	1033.6868	0.118626	-399.830731	-399.822925	-399.821981	-399.863136	27.449
C         -0.10290        1.39090        0.01840
O         -0.04400       -0.03670        0.05700
C         -1.19480       -0.69440        0.03360
N         -1.33040       -1.97840        0.06570
C         -2.71630       -2.16690        0.01900
C         -3.31350       -3.53200        0.03580
C         -3.32620       -0.96240       -0.03800
O         -2.34210        0.01560       -0.02980
H          0.93370        1.72570        0.04710
H         -0.58370        1.73980       -0.90040
H         -0.64780        1.78530        0.88130
H         -3.02510       -4.07070        0.94450
H         -4.40460       -3.48480       -0.00760
H         -2.95730       -4.12190       -0.81540
H         -4.34270       -0.61490       -0.08560
