18
gdb 15912	2.53283	2.04522	1.29224	1.7332	63.77	-0.247	0.0563	0.3034	968.0052	0.15282	-422.046207	-422.037693	-422.036748	-422.07913	31.59
C          0.11820        1.24980        0.17820
O         -0.02040       -0.14020       -0.07330
C          0.63530       -0.58130       -1.25200
C          2.00420       -1.24740       -0.89780
O          2.67470       -0.76030        0.23450
C          1.27870       -2.62110       -0.81390
C          0.08510       -1.99580       -1.59610
O         -1.22720       -2.27150       -1.20070
H          1.17050        1.53080        0.30520
H         -0.31270        1.84290       -0.64050
H         -0.42870        1.46460        1.09960
H          0.60460        0.19700       -2.02370
H          2.71130       -1.19600       -1.72980
H          2.01740       -0.72800        0.94010
H          1.77570       -3.49490       -1.23950
H          0.98520       -2.84400        0.21680
H          0.15980       -2.19670       -2.66900
H         -1.39200       -1.71070       -0.43090
