18
gdb 18349	3.29518	2.29101	1.62013	1.5263	72.44	-0.2415	0.0177	0.2592	840.8446	0.155554	-347.798781	-347.791842	-347.790898	-347.829754	27.096
C          0.12780        1.59270        0.01490
C          0.04110        0.06070       -0.01210
C          0.73260       -0.58570       -1.19700
C          1.55300       -1.57930       -0.85520
C          1.61000       -1.78530        0.63370
C          2.76660       -1.05830        1.35950
O          1.91740        0.06970        1.65610
C          0.73730       -0.62500        1.18470
H          1.16870        1.91500        0.08550
H         -0.31240        2.01940       -0.89190
H         -0.41250        2.00240        0.87440
H         -1.02300       -0.22110       -0.01260
H          0.55210       -0.25260       -2.21440
H          2.13810       -2.17400       -1.54870
H          1.40730       -2.80900        0.95750
H          3.11270       -1.55480        2.27610
H          3.63260       -0.77590        0.74970
H          0.05710       -0.84290        2.01580
