15
gdb 5093	3.42195	1.9599	1.26284	1.9365	63.99	-0.1772	0.0515	0.2288	914.7109	0.12054	-395.995393	-395.987162	-395.986218	-396.02765	30.437
N          0.20610        1.41840       -0.02750
C          0.04720       -0.00200       -0.01460
C         -1.07330       -0.81200        0.03870
N         -0.63920       -2.10690        0.02470
C          0.74370       -2.16520       -0.03680
N          1.39230       -3.41990       -0.06060
C          1.18100       -0.85890       -0.06170
O          2.47110       -0.43080       -0.12110
H         -0.17920        1.85230        0.80510
H         -0.25280        1.84570       -0.82560
H         -2.12220       -0.56640        0.08450
H         -1.21150       -2.93230        0.05360
H          2.02640       -3.52360        0.72610
H          1.95360       -3.53040       -0.89990
H          2.40720        0.53650       -0.12240
