11
gdb 23878	3.37544	1.60465	1.38614	1.8053	40.7	-0.299	-0.0617	0.2373	844.2647	0.066602	-566.046119	-566.038572	-566.037627	-566.078624	26.135
O          0.02370        1.45630        0.10680
C          0.02790        0.06990        0.03210
C          0.72360       -0.40950       -1.24010
O          1.14720        0.38810       -2.03660
C          0.72520       -0.53780        1.25760
F          0.15990       -0.13310        2.39130
F          0.64300       -1.88020        1.20340
F          2.02000       -0.20590        1.29100
H          0.52050        1.76320       -0.66960
H         -0.99630       -0.33900        0.03210
H          0.80670       -1.50140       -1.38600
