12
gdb 18842	4.22711	2.49183	2.05682	2.7874	57.09	-0.2391	-0.0411	0.198	650.3467	0.08542	-377.482064	-377.476754	-377.47581	-377.511355	20.984
O          0.00860        0.06490       -0.05630
C         -0.01800        1.25970       -0.08170
C         -1.11760        2.26980        0.11890
C         -0.06250        3.20810        0.67940
C          1.07880        2.36550        0.02580
N          1.25150        2.90610       -1.33780
C          0.16330        3.50750       -1.58400
N         -0.80690        3.59970       -0.50830
H         -2.14680        2.09120        0.40120
H         -0.08480        3.78860        1.59270
H          2.00800        2.13470        0.53870
H         -0.08490        3.97540       -2.52970
