15
gdb 21130	7.01727	1.3043	1.1152	3.8557	66.63	-0.2138	0.0102	0.224	1053.1159	0.118099	-395.979354	-395.971112	-395.970168	-396.012609	28.536
C         -0.04110        1.40040       -0.04000
N          0.05000       -0.05280       -0.05710
C          0.59200       -0.61850        0.92800
N          0.77550       -1.98370        1.10690
C          1.39400       -2.17840        2.31090
C          1.75640       -3.51270        2.85940
N          1.63130       -1.06620        2.92430
O          1.12910       -0.04740        2.05580
H          0.94770        1.87520       -0.10170
H         -0.62500        1.72750       -0.90370
H         -0.52810        1.78140        0.86790
H          0.47670       -2.67510        0.44270
H          2.44550       -4.03640        2.18880
H          2.23680       -3.38150        3.82950
H          0.86640       -4.13810        2.98470
