15
gdb 20376	6.15693	1.54699	1.37147	0.6284	68.03	-0.2449	-0.0011	0.2438	898.2333	0.121665	-358.831783	-358.825301	-358.824357	-358.863247	24.071
C         -0.12390        1.43950       -0.11080
C          1.27900        0.91970        0.09480
C          0.11820       -0.03460        0.05690
N         -0.30240       -0.69260        1.26290
N         -0.26170       -0.11100        2.45400
C         -0.73110       -1.05280        3.27870
C         -1.04190       -2.18880        2.52550
N         -0.76060       -1.93840        1.24230
H         -0.58550        1.94990        0.72580
H         -0.41960        1.79150       -1.09250
H          1.96720        0.90720       -0.74260
H          1.72890        1.09240        1.06510
H         -0.00610       -0.70280       -0.78350
H         -0.81800       -0.86870        4.33740
H         -1.44010       -3.14340        2.82920
