15
gdb 10471	3.50242	1.68871	1.25091	1.5855	64.03	-0.2502	-0.0361	0.2141	937.1202	0.118111	-399.82278	-399.815083	-399.814139	-399.854909	28.026
O          0.37000        2.30860       -1.42450
C          0.10040        1.81280       -0.34670
N          0.96840        1.15630        0.45870
C          2.35510        0.91350        0.21170
C          2.91310        0.62910       -1.18130
C          3.25890        1.91510       -0.50390
C          2.97170        0.16030        1.32580
O          2.36620       -0.19620        2.30980
H         -0.91330        1.85090        0.09640
H          0.64840        0.77580        1.34030
H          3.66490       -0.14850       -1.26570
H          2.18980        0.67880       -1.98390
H          2.76230        2.80600       -0.86370
H          4.25790        2.05570       -0.10460
H          4.05160       -0.05800        1.18940
