17
gdb 9532	2.75091	1.94825	1.6088	2.5685	65.15	-0.2308	0.028	0.2588	891.0489	0.140705	-401.009948	-401.001264	-401.00032	-401.042986	30.955
C         -0.12000        1.38660        0.02630
O          0.15500       -0.00840        0.05100
C          0.74140       -0.53010       -1.11870
C          2.13760        0.00720       -1.40420
C          0.58600       -2.08260       -1.13370
N         -0.23550       -1.92650       -2.33880
C         -0.22450       -0.55690       -2.35640
O         -0.76820        0.26500       -3.04830
H          0.79840        1.98780        0.06600
H         -0.69300        1.66840       -0.86380
H         -0.71060        1.59680        0.92080
H          2.77560       -0.11180       -0.52270
H          2.59070       -0.53070       -2.24200
H          2.10420        1.06650       -1.67230
H          1.50690       -2.65300       -1.28680
H          0.04330       -2.45510       -0.26130
H         -0.77480       -2.59280       -2.87180
