11
gdb 3875	6.06225	2.95655	1.98846	2.408	55.4	-0.2271	-0.0603	0.1667	592.6353	0.081051	-335.635972	-335.630447	-335.629502	-335.665055	20.548
N         -0.02170        1.33460       -0.10140
C         -0.01520       -0.02090       -0.03780
N         -1.20680       -0.64870       -0.01890
C         -1.12550       -1.96860       -0.00570
C          0.10690       -2.62130       -0.00790
N          1.24670       -1.93050       -0.00810
N          1.19990       -0.61230       -0.02050
H          0.84710        1.81130        0.07000
H         -0.88600        1.81010        0.09190
H         -2.06090       -2.52420        0.01170
H          0.19460       -3.70150        0.00090
