14
gdb 1422	5.21291	1.54267	1.36611	2.863	56.21	-0.255	-0.0361	0.219	873.0684	0.11152	-361.749428	-361.741505	-361.74056	-361.782464	26.513
C          0.08270        1.60980        0.37660
C         -0.02020        0.15290       -0.06800
N          0.67200       -0.11480       -1.32110
C          0.03470       -0.58270       -2.43270
O         -1.14070       -0.87070       -2.48890
C          0.47230       -0.82660        0.99560
O          0.71570       -0.53070        2.13540
H          1.12780        1.90590        0.51400
H         -0.37440        2.26820       -0.36550
H         -0.42140        1.74390        1.33580
H         -1.06660       -0.11510       -0.27040
H          1.64650        0.13430       -1.39750
H          0.72390       -0.67460       -3.29410
H          0.59570       -1.86650        0.61790
