20
gdb 14556	3.21355	1.72977	1.43081	1.3063	74.36	-0.2411	0.0703	0.3114	974.9702	0.176548	-348.973328	-348.965032	-348.964088	-349.005677	32.17
C          0.06620        1.45790       -0.28260
C          0.01020        0.00060        0.19330
C         -1.37570       -0.60390        0.07300
O         -2.33370        0.03470        0.89260
C         -1.97630       -1.14930       -1.20170
C         -0.95260       -1.91290       -2.05100
C         -0.65610       -2.84760       -0.83050
C         -1.68090       -2.07060        0.00150
H          1.07680        1.86570       -0.18810
H         -0.23340        1.54360       -1.33300
H         -0.59710        2.09510        0.31230
H          0.73220       -0.59400       -0.37370
H          0.31430       -0.05580        1.24560
H         -2.55840        0.87640        0.48240
H         -2.93610       -0.78200       -1.54750
H         -1.41620       -2.45660       -2.87710
H         -0.11560       -1.33230       -2.45280
H         -0.97150       -3.87560       -1.02110
H          0.37110       -2.87110       -0.45250
H         -2.37880       -2.49620        0.71230
