10
gdb 1204	9.39209	1.08877	1.00782	3.6824	55.99	-0.2777	-0.0821	0.1956	1048.1109	0.064778	-359.314227	-359.306583	-359.305638	-359.347182	24.38
N         -0.01870        1.32520        0.23630
C          0.01780        0.05660       -0.25340
O          0.99100       -0.45540       -0.76740
C         -1.24520       -0.66700       -0.12500
C         -2.25240       -1.32930       -0.04070
C         -3.46350       -2.11410        0.02430
O         -3.91310       -2.57870        1.04450
H          0.83330        1.86260        0.22540
H         -0.81740        1.67580        0.73660
H         -3.95990       -2.25840       -0.95570
