17
gdb 12490	3.34955	1.90034	1.35607	4.307	64.18	-0.2285	0.0131	0.2417	910.3161	0.144424	-401.019613	-401.012227	-401.011283	-401.051547	27.644
O          0.02450        0.53100        1.26600
C         -0.02530        1.18680        0.25990
C         -1.39500        1.60110       -0.31890
N         -1.53760        1.95620       -1.71360
C         -1.02080        3.26470       -2.09180
C          0.38030        3.59570       -1.53260
C          1.28930        2.37230       -1.49450
O          1.14080        1.54060       -0.33230
H         -2.04960        0.75810       -0.07910
H         -1.75100        2.43730        0.29670
H         -1.18060        1.22630       -2.31650
H         -0.99870        3.29960       -3.18600
H         -1.73300        4.03550       -1.77010
H          0.84940        4.37220       -2.14810
H          0.31640        4.00740       -0.51860
H          1.16300        1.75820       -2.39600
H          2.33770        2.67760       -1.45170
