17
gdb 18255	4.10651	1.75954	1.39749	2.4454	68.51	-0.2276	0.0036	0.2312	894.9391	0.143706	-363.830569	-363.823552	-363.822607	-363.861731	27.393
O          0.83300       -0.63400       -1.07850
C          0.17240       -0.06860        0.03670
C         -1.31330       -0.43200        0.04650
C         -2.14020        0.08110        1.20620
C         -3.23840        0.69510        0.76530
C         -3.23540        0.74680       -0.72580
C         -2.10970        1.53080       -1.30860
N         -2.00020        0.06630       -1.17980
H          0.27620       -0.45850       -1.84610
H          0.65670       -0.47570        0.93110
H          0.29440        1.02590        0.06800
H         -1.35980       -1.53050        0.00550
H         -1.85690       -0.05550        2.24330
H         -4.02470        1.12550        1.37310
H         -4.14870        0.57410       -1.28880
H         -2.15340        1.87420       -2.33860
H         -1.55960        2.17480       -0.62800
