14
gdb 518	12.55557	1.27566	1.25351	1.263	58.63	-0.2418	0.0372	0.279	959.5388	0.117895	-270.39928	-270.39147	-270.390525	-270.432574	25.564
C          0.27430        1.47800       -0.17360
C         -0.23400        0.07260        0.19540
C          0.46380       -0.51240        1.33510
C          1.05780       -0.97850        2.27280
C          1.75500       -1.54040        3.42190
O          2.86810       -2.31100        2.98050
H          1.33710        1.45110       -0.42850
H         -0.27760        1.87050       -1.03300
H          0.14620        2.16980        0.66340
H         -1.30930        0.11510        0.41200
H         -0.12990       -0.59480       -0.66970
H          2.07880       -0.72060        4.08420
H          1.05170       -2.15830        4.00440
H          3.30070       -2.66250        3.76550
