16
gdb 5716	4.6815	1.95306	1.42828	1.2248	70.01	-0.214	0.0203	0.2343	850.6709	0.134099	-346.641374	-346.635287	-346.634343	-346.67145	24.351
C          0.10420        1.44340       -0.33200
C          1.40610        2.01810        0.30740
C          2.14810        0.76740        0.68490
C          3.37300        0.30850        1.03780
O          3.31200       -1.04020        1.25720
C          2.02070       -1.43610        1.04080
C          1.27030       -0.36510        0.68690
C         -0.12660        0.04070        0.31090
H         -0.75420        2.10900       -0.20910
H          0.26600        1.31610       -1.40750
H          1.94880        2.67260       -0.38080
H          1.17080        2.61720        1.19680
H          4.34560        0.75300        1.16880
H          1.83310       -2.48850        1.17450
H         -0.76390        0.12120        1.20110
H         -0.62620       -0.64950       -0.37500
