17
gdb 18618	2.81361	2.34914	1.74571	3.8489	67.39	-0.2424	-0.0025	0.2399	820.695	0.143165	-363.87754	-363.870251	-363.869307	-363.909235	27.46
C         -0.16620        1.49380        0.10860
C         -0.01380        0.00500       -0.08770
C          0.74340       -0.62330       -1.20860
C          1.68530        0.20260       -2.09660
C          2.92040        0.43610       -1.20160
C          2.42370        0.16370        0.22510
O          2.90160        0.57510        1.24720
N          1.27840       -0.68510        0.16220
H          0.61370        2.07360       -0.39110
H         -1.13460        1.81950       -0.28460
H         -0.13060        1.74350        1.17360
H         -0.85100       -0.56920        0.30610
H          0.38090       -1.56730       -1.60680
H          1.93150       -0.35210       -3.00380
H          1.22880        1.14530       -2.41380
H          3.71750       -0.28080       -1.42940
H          3.35660        1.43510       -1.25990
