17
gdb 12895	3.26214	1.81761	1.51659	4.4187	72.88	-0.276	0.0332	0.3092	900.4453	0.14274	-326.722808	-326.715256	-326.714312	-326.754379	28.621
C          0.00610        1.55130        0.01850
C         -0.01350        0.05110        0.06470
C         -1.27590       -0.82380       -0.02120
C         -0.63640       -1.82330        0.99880
C          0.60940       -0.93480        1.04930
C          1.20100       -0.77110       -0.34190
C          1.14770       -1.81100       -1.33390
N          1.08220       -2.64920       -2.12940
H          0.99140        1.94830        0.28360
H         -0.24300        1.91850       -0.98380
H         -0.72460        1.97210        0.71800
H         -2.15260       -0.31750        0.38880
H         -1.52390       -1.21580       -1.01120
H         -1.17230       -1.84570        1.94930
H         -0.48130       -2.84900        0.65410
H          1.23340       -0.74620        1.91560
H          2.12460       -0.20010       -0.36100
