17
gdb 19509	3.70745	1.57273	1.54574	3.4157	69.3	-0.241	-0.0316	0.2094	905.0202	0.143576	-363.850222	-363.843082	-363.842138	-363.88184	26.735
O         -0.45600        0.63580       -1.09250
C          0.05510        0.95030       -0.04300
C          1.28170        1.78580        0.01820
C          1.48950        2.88370        1.03210
C          0.62940        2.97530        2.28640
C          0.79690        1.60520        2.99090
C          2.01730        0.94670        2.29330
N          2.33600        1.69920        1.06040
H         -0.38680        0.61880        0.91760
H          1.69080        1.95230       -0.97520
H          1.94220        3.80020        0.66170
H          1.01800        3.78650        2.90980
H         -0.41610        3.21350        2.07200
H          0.96990        1.72380        4.06330
H         -0.10280        0.99380        2.88740
H          2.90760        1.01750        2.92590
H          1.86420       -0.11240        2.06770
