17
gdb 11596	4.81268	1.23324	1.11298	2.3294	65.2	-0.2433	0.0085	0.2519	1103.0131	0.141642	-401.008533	-401.000016	-400.999071	-401.042623	29.636
C         -0.13540        1.21250        0.25640
C         -0.24190       -0.29130        0.20650
O          0.34160       -1.05490        0.93820
O         -1.08080       -0.67590       -0.77730
C         -1.26030       -2.10030       -0.95820
C         -2.36040       -2.64570       -0.08900
C         -2.25120       -4.04170        0.41100
N         -2.12040       -2.91120        1.33620
H          0.57700        1.50120        1.02780
H          0.18060        1.60120       -0.71540
H         -1.11640        1.64370        0.47610
H         -1.50940       -2.20990       -2.01710
H         -0.31340       -2.60560       -0.75070
H         -3.34840       -2.24220       -0.30190
H         -3.14810       -4.64210        0.53370
H         -1.36230       -4.60930        0.14440
H         -1.14090       -2.73140        1.54670
