20
gdb 17377	3.80713	1.49861	1.24099	1.5643	74.27	-0.2445	0.0724	0.3169	1040.3241	0.176812	-348.973636	-348.965352	-348.964408	-349.006178	31.796
C          0.04710        1.52860       -0.03630
C          0.05160        0.00460        0.09630
O          0.67540       -0.40810        1.31230
C         -1.34710       -0.59590       -0.02010
C         -2.11550       -0.54510       -1.38880
C         -2.29000       -2.06840       -1.32410
C         -0.94520       -2.73320       -1.27980
C         -1.49250       -2.12490       -0.01790
H          1.06130        1.92230        0.07210
H         -0.34740        1.84500       -1.00740
H         -0.58060        1.98320        0.74120
H          0.69110       -0.41780       -0.68810
H          0.15800       -0.04570        2.04040
H         -1.97620       -0.15660        0.76530
H         -3.05080        0.01440       -1.32330
H         -1.55020       -0.17400       -2.25170
H         -3.18890       -2.60650       -1.59880
H         -0.95970       -3.81820       -1.30230
H         -0.09510       -2.29530       -1.79820
H         -1.66920       -2.72900        0.86330
