17
gdb 7414	3.30187	1.69244	1.17115	5.7983	66.67	-0.234	-0.0165	0.2175	1027.4666	0.139329	-401.050038	-401.040709	-401.039764	-401.084745	32.315
C          0.07690        1.40450       -0.02860
N          0.08290       -0.05950       -0.00300
C          0.18030       -0.74190        1.24050
C         -0.13140        0.08000        2.48640
O          0.49100       -1.90130        1.32300
C         -0.11120       -0.78240       -1.20800
C         -0.05710        0.03400       -2.49340
O         -0.32570       -1.96730       -1.23370
H          0.53770        1.79550        0.87600
H          0.66540        1.77320       -0.86870
H         -0.93570        1.81930       -0.10670
H         -1.00790        0.72220        2.36570
H         -0.30070       -0.62960        3.29600
H          0.71650        0.71460        2.76590
H          0.92540        0.49500       -2.63840
H         -0.25040       -0.65690       -3.31300
H         -0.80500        0.83230       -2.51270
