20
gdb 13505	3.03438	1.6282	1.17779	2.26	70.68	-0.241	0.0652	0.3061	1064.0558	0.175479	-386.124	-386.114827	-386.113883	-386.158104	33.366
C         -0.02650        1.58000       -0.06250
C          0.02480        0.05250        0.00320
O          0.81820       -0.39120        1.10390
C         -1.37000       -0.56420        0.05320
C         -2.23920       -0.48130       -1.22010
O         -2.32810       -1.91270       -1.31850
C         -1.52980       -2.10310       -0.12040
C         -0.31730       -2.97890       -0.36920
H          0.98630        1.99110       -0.08100
H         -0.55700        1.92580       -0.95560
H         -0.54700        1.98830        0.81320
H          0.55500       -0.32010       -0.88080
H          0.42230       -0.03820        1.90880
H         -1.88330       -0.19080        0.94710
H         -3.22270       -0.01070       -1.09750
H         -1.74850       -0.03960       -2.09900
H         -2.14520       -2.54880        0.67370
H          0.28720       -2.59820       -1.19700
H          0.31030       -3.02500        0.52470
H         -0.64320       -3.99090       -0.62920
