14
gdb 1048	7.38584	2.08673	1.64418	3.0463	59.96	-0.1782	0.063	0.2411	734.5473	0.114342	-324.593866	-324.587081	-324.586137	-324.626459	24.416
C         -0.03640        1.41220        0.01010
O          0.00810        0.00100        0.00320
C         -1.17480       -0.65980        0.01120
C         -1.37080       -2.01950        0.00950
C         -2.78230       -2.22870        0.02000
C         -3.39570       -1.00360        0.02760
N         -2.40000       -0.03970        0.02220
H          0.99930        1.75460        0.00330
H         -0.54550        1.80860       -0.88030
H         -0.53110        1.80030        0.91220
H         -0.58990       -2.76210        0.00180
H         -3.28420       -3.18410        0.02170
H         -4.43450       -0.71870        0.03650
H         -2.55630        0.95130        0.02550
