17
gdb 18500	5.88393	1.12355	1.05378	3.9821	69.34	-0.2373	-0.0148	0.2225	1111.6774	0.142095	-363.821313	-363.813758	-363.812814	-363.854043	27.673
O         -0.23740        0.04210       -0.15410
C          0.03900        1.20220        0.02020
C          1.39810        1.81450       -0.21280
C          1.36100        2.94440       -1.24790
C          0.56890        4.27130       -0.91840
C          1.87710        5.04550       -1.09570
N          2.81570        4.49090       -0.08970
C          2.63270        3.79720       -1.38610
H         -0.73630        1.92170        0.37460
H          1.75550        2.24190        0.73350
H          2.08570        1.02120       -0.52290
H          1.05120        2.55760       -2.22280
H         -0.18650        4.50160       -1.67200
H          0.12620        4.34550        0.07830
H          2.01160        6.04740       -1.48410
H          3.68250        5.02340       -0.15480
H          3.47590        3.61870       -2.04250
