16
gdb 6872	2.91004	1.68382	1.47596	3.747	66.26	-0.2557	0.0259	0.2816	922.6749	0.129295	-379.915369	-379.906631	-379.905687	-379.948115	31.937
C         -0.08600        1.53650       -0.12390
C          0.03220        0.02790       -0.05220
N         -1.06330       -0.77440       -0.54690
C          1.37430       -0.61470       -0.21930
O          2.45380        0.22100       -0.45580
C          0.71310       -0.61790        1.16800
C          1.29060        0.18080        2.20470
N          1.77820        0.81360        3.04270
H          0.80980        2.03630        0.24660
H         -0.24030        1.84550       -1.16360
H         -0.94440        1.87880        0.46400
H         -1.92670       -0.50970       -0.07950
H         -1.20170       -0.59070       -1.53770
H          1.39280       -1.58180       -0.71920
H          3.19990       -0.06950        0.08060
H          0.28460       -1.55940        1.49180
