14
gdb 21308	7.62003	1.12589	0.99323	4.6257	60.68	-0.2688	-0.0361	0.2327	1117.2712	0.105943	-415.820796	-415.813147	-415.812203	-415.853854	25.925
C          0.30600        1.41600       -0.03290
O          0.53270        0.02290       -0.06020
C          0.15870       -0.61110        1.13460
C          0.44030       -2.06750        0.99000
C          0.95440       -2.80810       -0.02870
N          0.98280       -4.11060        0.41160
N          0.54010       -4.20890        1.57760
O          0.16380       -2.87050        2.00970
H          0.88450        1.90500        0.76550
H          0.62610        1.81230       -0.99830
H         -0.75900        1.65030        0.11590
H          0.71690       -0.21070        1.99850
H         -0.91240       -0.46190        1.35500
H          1.29230       -2.51370       -1.00530
