20
gdb 14125	3.56598	1.56205	1.41649	1.7754	74.48	-0.2441	0.0814	0.3255	1000.6743	0.175862	-348.978939	-348.970507	-348.969563	-349.011713	31.944
C          0.01810        1.44900       -0.22230
C          0.03310       -0.05350        0.10380
C          0.87290       -0.35340        1.35400
C         -1.36970       -0.57680        0.23730
C         -2.41380       -0.31920        1.34730
C         -3.04810       -1.71490        1.01090
C         -1.98580       -1.87940       -0.08230
O         -2.12640       -0.76150       -0.97160
H          1.03460        1.82250       -0.38160
H         -0.56590        1.64530       -1.12580
H         -0.42320        2.02480        0.59930
H          0.47540       -0.58400       -0.74930
H          0.48090        0.17060        2.23270
H          0.88760       -1.42460        1.57890
H          1.90660       -0.02400        1.20950
H         -1.98970       -0.28610        2.35340
H         -3.04440        0.55820        1.18750
H         -2.94140       -2.43090        1.82950
H         -4.08150       -1.71630        0.65620
H         -1.56130       -2.78660       -0.49910
