16
gdb 16919	3.64644	2.20972	1.9964	2.8437	68.08	-0.2231	-0.0179	0.2052	742.7815	0.133368	-346.632353	-346.626467	-346.625523	-346.662117	24.38
O          0.01810        0.02590        0.09480
C         -0.00560        1.22560        0.04180
C         -1.25330        2.13760        0.01990
C         -0.60700        3.55270        0.03090
C          0.60780        3.31410       -0.90380
C          1.20680        2.18910       -0.02520
C          1.17380        2.86600        1.34400
C          0.11130        3.67690        1.37320
H         -1.81370        1.94210       -0.90130
H         -1.91480        1.93570        0.86450
H         -1.28080        4.36630       -0.23720
H          0.32190        2.98360       -1.90840
H          1.27010        4.18020       -0.97270
H          2.13590        1.70970       -0.32560
H          1.84350        2.61750        2.15650
H         -0.25720        4.24490        2.21780
