14
gdb 16365	2.7775	2.24351	1.40945	3.6506	59.06	-0.2432	-0.0411	0.2021	852.1638	0.10503	-419.647371	-419.639892	-419.638948	-419.679223	27.316
O          0.18450        1.14280       -0.57190
C          0.04430       -0.12100        0.02640
C          0.02330       -0.20480        1.59150
C         -1.31320       -0.97390        1.49200
O         -1.97560       -1.61650        2.25190
C         -1.40230       -0.63130        0.01410
C         -2.54540       -0.03550       -0.69850
O         -2.05440       -1.33720       -1.01460
H          1.12060        1.35960       -0.61830
H          0.72800       -0.86100       -0.40920
H          0.84120       -0.73530        2.08300
H         -0.10580        0.78060        2.04980
H         -3.51800       -0.00760       -0.21130
H         -2.33790        0.73870       -1.43340
