15
gdb 8563	4.31751	2.11122	1.81629	4.7043	62.08	-0.2427	0.0492	0.2919	751.0075	0.121213	-399.796637	-399.79068	-399.789736	-399.826708	23.934
N         -0.07100        1.22160        0.43480
C         -0.00790        0.04640       -0.01490
O          1.16510       -0.60400       -0.28390
C          1.06140       -1.94380       -0.79340
C          0.01310       -1.96170       -1.93230
C         -1.00810       -1.97270       -0.76780
C          0.04870       -2.72810        0.07570
O         -1.15150       -0.64130       -0.25710
H          0.86920        1.59070        0.55900
H          2.08220       -2.29160       -0.94430
H         -0.00740       -1.11520       -2.62080
H          0.01920       -2.90650       -2.47880
H         -2.01900       -2.35580       -0.89610
H          0.06050       -3.79670       -0.14660
H          0.05940       -2.55570        1.15330
