19
gdb 12063	3.93902	1.5722	1.42363	2.8064	71.13	-0.2255	0.0736	0.299	947.9184	0.165207	-365.010551	-365.002383	-365.001439	-365.04261	31.361
C         -0.04350        1.59060        0.12390
C         -0.00490        0.06910        0.04280
C         -1.38780       -0.52630       -0.19280
O         -1.85040       -0.09840       -1.46620
C          1.05630       -0.57090       -0.93980
C          1.67600       -1.29590        0.25650
N          2.12120       -0.23360        1.19400
C          0.70600       -0.67350        1.19580
H          0.95500        1.98320        0.32730
H         -0.41100        2.01440       -0.81480
H         -0.71370        1.92190        0.92660
H         -1.32970       -1.62620       -0.14180
H         -2.06940       -0.19450        0.60850
H         -2.72760       -0.46540       -1.60740
H          0.58780       -1.22710       -1.67490
H          1.72340        0.13020       -1.44670
H          2.13560       -2.27660        0.28040
H          2.57360       -0.69890        1.98090
H          0.25130       -1.06450        2.09990
