16
gdb 6623	7.83354	0.63454	0.60325	2.0324	88.96	-0.2333	-0.013	0.2203	1840.1603	0.127479	-346.562963	-346.553107	-346.552163	-346.599943	33.201
C         -0.00790        1.45360       -0.03700
C          0.00970        0.00220       -0.02240
C          0.02540       -1.20810       -0.00830
C          0.04250       -2.56770        0.00620
C          0.05980       -3.77900        0.02280
C          0.06270       -5.24360       -0.00450
C         -1.36540       -5.81010        0.01200
O          0.81670       -5.74970       -1.10390
H          1.00840        1.86260       -0.06590
H         -0.54640        1.83510       -0.91190
H         -0.50160        1.85130        0.85690
H          0.59520       -5.61100        0.88170
H         -1.92620       -5.45940       -0.86020
H         -1.32040       -6.90200       -0.01240
H         -1.90070       -5.49220        0.91130
H          0.47580       -5.33350       -1.90370
