13
gdb 1166	3.73099	2.16435	1.92815	0.8963	51.49	-0.2616	-0.0689	0.1927	709.9145	0.097882	-381.60777	-381.600052	-381.599107	-381.639582	26.757
C          0.27630        1.51360        0.54370
C          0.09130        0.08040        0.00820
O          0.58950       -0.88160        0.89390
C         -1.39710       -0.16600       -0.23870
O         -1.98190       -1.05890        0.32120
C          0.80000       -0.06310       -1.35120
O          0.70100        0.73400       -2.24550
H          1.32790        1.66260        0.80020
H         -0.00760        2.24330       -0.21800
H         -0.32450        1.66410        1.44430
H         -0.16760       -1.43900        1.13820
H         -1.89110        0.52290       -0.94880
H          1.40700       -0.99080       -1.42080
