15
gdb 4009	3.51438	1.14455	0.87266	1.1136	68.57	-0.2417	-0.0329	0.2088	1242.0913	0.115546	-399.714593	-399.705417	-399.704473	-399.748783	32.157
O         -0.17300        1.44700        0.01140
C          0.03840        0.04160        0.00180
C         -1.34260       -0.60160        0.01160
C         -1.33720       -2.11100        0.00340
N         -0.20110       -2.71320       -0.01080
O         -0.32560       -4.09590       -0.01710
C         -2.59810       -2.77740        0.01190
C         -3.69270       -3.27810        0.01980
H          0.68680        1.87700        0.00610
H          0.59540       -0.27970       -0.88960
H          0.61230       -0.28920        0.87890
H         -1.89550       -0.25270        0.89250
H         -1.91220       -0.24330       -0.85480
H          0.59330       -4.38650       -0.02760
H         -4.64890       -3.74040        0.02650
