18
gdb 9897	4.66898	0.88105	0.83319	1.2225	79.18	-0.2354	0.035	0.2704	1433.5306	0.151708	-347.75754	-347.748175	-347.747231	-347.792719	33.095
C         -0.22670        1.43260        0.27000
C          0.01310       -0.04400       -0.00940
C          1.41960       -0.48370       -0.39640
C          0.88510       -0.82700        0.96360
C         -1.08890       -0.74370       -0.61490
C         -2.02850       -1.30870       -1.11560
C         -3.15060       -1.99010       -1.74460
O         -3.95290       -2.62460       -0.75280
H          0.65630        1.88610        0.73100
H         -0.44500        1.97540       -0.65510
H         -1.07430        1.56830        0.94900
H          1.51340       -1.27900       -1.12590
H          2.17090        0.29500       -0.47500
H          1.26810       -0.28430        1.82120
H          0.61210       -1.85610        1.16300
H         -3.73960       -1.25670       -2.31980
H         -2.76590       -2.72520       -2.47090
H         -4.68080       -3.05840       -1.21000
