20
gdb 9947	2.96367	1.45099	1.3267	3.2729	77.1	-0.2425	-0.0101	0.2323	1062.1259	0.174349	-349.017978	-349.008288	-349.007344	-349.052235	34.536
C         -0.25380        0.98040       -1.78800
C         -0.00840       -0.21520       -0.89300
C          1.34070       -0.62560       -0.38900
C          2.62680        0.10410       -0.71190
C          0.31300       -0.05430        0.60250
C          0.48170        1.30120        1.25500
C         -0.32240       -1.07580        1.47090
O         -0.69040       -0.89110        2.60570
H          0.43780        1.80350       -1.59980
H         -0.14450        0.69350       -2.83960
H         -1.27010        1.36500       -1.65330
H         -0.67980       -1.04440       -1.10960
H          1.48100       -1.70170       -0.30240
H          2.48790        1.17970       -0.83450
H          3.36820       -0.04550        0.07980
H          3.05490       -0.28020       -1.64410
H          0.95020        2.03230        0.59510
H         -0.49000        1.69600        1.56610
H          1.09430        1.21440        2.15730
H         -0.44420       -2.07420        0.98450
