14
gdb 2275	7.72508	1.54827	1.37752	5.4171	57.89	-0.2643	0.0283	0.2926	848.9641	0.113875	-324.570872	-324.564007	-324.563063	-324.602488	23.646
N         -0.02600       -1.14080        0.28020
C         -0.01560        0.01030        0.18310
C          0.00340        1.46470        0.04260
C          1.41760        2.02200       -0.15000
C          1.56750        3.55850       -0.12800
C          2.52420        3.29670        1.05340
O          2.22650        1.88220        1.03180
H         -0.61470        1.74340       -0.81970
H         -0.44650        1.91650        0.93340
H          1.88910        1.53330       -1.01260
H          2.00470        4.01000       -1.01890
H          0.65330        4.09470        0.13610
H          3.58280        3.49090        0.84420
H          2.26020        3.75550        2.01230
