12
gdb 945	5.96876	2.88574	1.94665	0.6185	58.83	-0.2261	-0.0272	0.1989	615.2639	0.093849	-319.624414	-319.618911	-319.617967	-319.653407	21.04
N         -0.01550        1.34290        0.13300
C          0.00260       -0.01810        0.04920
N         -1.19110       -0.63840        0.03240
C         -1.14960       -1.96730       -0.00040
C          0.03850       -2.69070       -0.02000
C          1.20660       -1.93530       -0.01400
N          1.21240       -0.60570        0.01850
H          0.84080        1.82530       -0.08010
H         -0.88690        1.80180       -0.07010
H         -2.11260       -2.47450       -0.01440
H          0.05300       -3.77230       -0.04800
H          2.18280       -2.41610       -0.03930
