12
gdb 20494	5.06099	2.07997	1.50393	2.6132	55.58	-0.277	-0.0559	0.2211	754.2624	0.08538	-414.599648	-414.593813	-414.592869	-414.630142	21.169
C         -0.05460        1.50020        0.09810
O          1.20600        1.92350       -0.45270
C          2.13610        0.84070       -0.63770
C          1.29980       -0.37700       -0.41810
N          1.37120       -1.66930       -0.48740
O          0.11540       -2.09870       -0.09490
N         -0.72010       -1.03970        0.21510
C          0.01240        0.01060        0.01440
H         -0.15860        1.85090        1.13390
H         -0.86290        1.93720       -0.49730
H          2.55740        0.90760       -1.64620
H          2.95860        0.91250        0.08680
