13
gdb 21705	8.30857	1.17928	1.03307	2.5902	67.91	-0.2041	0.0037	0.2077	1054.9501	0.097798	-390.96691	-390.959814	-390.95887	-390.998694	25.516
N         -0.03460        1.35480        0.11830
C          0.05260       -0.00050        0.03780
N          1.18480       -0.60100        0.01700
C          1.18740       -1.98490       -0.00410
C          2.30070       -2.80040       -0.03160
N          1.78570       -4.05330       -0.04830
N          0.44180       -4.03960       -0.03200
N          0.07610       -2.79070       -0.00500
H          0.81370        1.88220       -0.02070
H         -0.89890        1.80500       -0.12750
H         -0.90860       -0.52130        0.02990
H          3.35550       -2.58940       -0.03950
H          2.26760       -4.93710       -0.06810
