14
gdb 21180	5.37105	1.61596	1.25285	4.1736	68.41	-0.2262	-0.059	0.1673	921.326	0.108911	-374.910648	-374.903466	-374.902522	-374.94261	25.399
C          0.05860        1.44990        0.06140
N         -0.06250        0.01610       -0.07030
C         -1.23730       -0.66510       -0.01970
C         -2.50650       -0.04290        0.00490
N         -3.60610       -0.76990        0.02840
C         -3.42370       -2.09790        0.03080
N         -2.25250       -2.72740        0.02070
N         -1.14290       -2.00700       -0.00200
H          1.11440        1.71830        0.00100
H         -0.46420        1.97290       -0.74860
H         -0.33420        1.82180        1.01830
H          0.75950       -0.56110        0.01200
H         -2.61420        1.03850        0.00670
H         -4.30610       -2.72830        0.04720
