14
gdb 258	7.6927	1.90998	1.63513	3.3205	50.52	-0.2437	-0.0204	0.2232	730.3237	0.11705	-307.577822	-307.570462	-307.569518	-307.609331	25.112
C         -0.08350        1.56170        0.05010
C         -0.06230        0.03460        0.02330
O          0.20320       -0.46560       -1.28420
C          0.93030       -0.54800        1.04900
C          0.88840       -2.06080        1.10670
O          0.86330       -2.70040        2.12780
H          0.91320        1.96720       -0.16600
H         -0.78000        1.94100       -0.70250
H         -0.38950        1.93790        1.03100
H         -1.06720       -0.33850        0.25570
H          1.02090       -0.05970       -1.59420
H          1.94780       -0.25070        0.75010
H          0.75200       -0.15420        2.05410
H          0.88010       -2.55590        0.11240
