20
gdb 11564	3.87698	1.18803	1.06251	2.1338	71.77	-0.2444	0.0812	0.3256	1189.3022	0.17538	-386.113952	-386.104816	-386.103872	-386.148215	33.491
C         -0.41420        1.49270        0.04680
C          0.06590        0.04320       -0.01840
C          0.86170       -0.36850        1.22230
O          0.06860       -0.31440        2.39280
O         -1.01400       -0.89680       -0.06580
C         -1.73240       -0.93980       -1.25940
C         -3.02330       -1.69130       -1.22730
C         -3.03180       -0.18440       -1.39390
H          0.44640        2.16960        0.04820
H         -1.04140        1.74350       -0.81130
H         -0.98180        1.65710        0.96610
H          0.70240       -0.09880       -0.90740
H          1.26830       -1.37860        1.06140
H          1.70210        0.31710        1.37230
H         -0.71970       -0.83390        2.19470
H         -1.10530       -1.03480       -2.14660
H         -3.28040       -2.31820       -2.07340
H         -3.32810       -2.08240       -0.26310
H         -3.34810        0.40100       -0.53860
H         -3.29510        0.23650       -2.35850
