17
gdb 17742	3.88697	2.53358	2.10902	1.9188	70.15	-0.2229	0.0764	0.2992	719.2396	0.143636	-326.642737	-326.636721	-326.635777	-326.672337	25.149
C          0.00770        1.50020        0.02620
C          0.05360       -0.00420       -0.00220
C          0.85000       -0.83520       -1.04480
C          0.73700       -1.95420       -0.00070
C          0.64770       -0.91810        1.15900
C         -0.76920       -1.45410        1.47770
C         -1.24430       -0.81460        0.22880
N         -0.75060       -2.23240        0.19980
H          1.01450        1.93100        0.00950
H         -0.53700        1.89360       -0.84070
H         -0.49920        1.86320        0.92750
H          0.41590       -0.99770       -2.03600
H          1.88210       -0.47970       -1.13640
H          1.34260       -2.85900       -0.00770
H          1.44690       -0.61130        1.82920
H         -1.27970       -1.79060        2.37210
H         -2.24680       -0.61960       -0.13380
