15
gdb 15285	2.66872	1.99469	1.4172	0.6967	72.2	-0.2331	0.0255	0.2585	905.2343	0.116129	-325.414872	-325.406617	-325.405673	-325.447555	30.419
C         -0.77660        0.06830       -0.88070
C         -0.12240        0.57260       -0.00690
C          0.71970        1.13910        1.04770
N          1.70830        2.16440        0.66850
C          1.96170        2.45350       -0.73170
C          1.24990        3.45830        0.12500
C         -0.14220        3.75430       -0.06730
C         -1.30330        4.05200       -0.16900
H         -1.37620       -0.36320       -1.64370
H          0.08810        1.56640        1.83450
H          1.28840        0.32320        1.50990
H          3.00220        2.62130       -0.99690
H          1.36130        1.93980       -1.47750
H          1.82900        4.29560        0.50970
H         -2.33040        4.29640       -0.28200
