14
gdb 4440	3.59257	1.81018	1.21723	3.7422	60.74	-0.1856	0.0445	0.2301	928.9915	0.107062	-415.918064	-415.910047	-415.909103	-415.950091	29.034
C          0.01430        1.51800       -0.02790
C         -0.04330        0.03320       -0.00540
C         -1.09540       -0.80270        0.09850
O         -2.41100       -0.52290        0.28710
N         -0.62610       -2.12000        0.02860
C          0.76550       -2.13750       -0.06190
O          1.50730       -3.09920       -0.08350
N          1.09070       -0.79110       -0.12110
H          0.62210        1.91690        0.79400
H          0.44070        1.89900       -0.96450
H         -0.99520        1.92150        0.07600
H         -2.90250       -0.71120       -0.52230
H         -1.15520       -2.94200        0.26300
H          2.04640       -0.48180       -0.14500
