18
gdb 15173	7.67702	0.65887	0.63641	2.1481	79.18	-0.2455	0.0295	0.275	1781.3757	0.151988	-347.757501	-347.748272	-347.747328	-347.793889	31.596
C         -0.15520        1.48350       -0.01590
C         -0.19760       -0.02160       -0.28590
C          1.06150       -0.51900       -1.02570
C          1.04680       -1.95070       -1.29850
C          1.00240       -3.13510       -1.51700
C          0.99500       -4.54940       -1.77180
C         -0.25650       -5.33270       -1.80020
O          0.41570       -5.00490       -3.00840
H          0.70850        1.75270        0.60250
H         -0.08410        2.05310       -0.94920
H         -1.05600        1.81570        0.50860
H         -0.29470       -0.57210        0.65640
H         -1.08070       -0.27370       -0.88340
H          1.16760        0.02880       -1.97200
H          1.95340       -0.27060       -0.43460
H          1.90880       -5.07850       -1.50200
H         -0.23220       -6.38360       -1.51330
H         -1.20100       -4.81860       -1.63250
