10
gdb 21747	5.67439	2.31384	1.64362	1.9604	52.79	-0.2557	-0.0314	0.2243	676.5015	0.063095	-413.436491	-413.43153	-413.430586	-413.465544	18.908
O         -0.08370        1.31160        0.00980
C          1.25320        1.73780       -0.00050
N          2.14680        0.80760       -0.01420
C          1.38720       -0.36110       -0.01320
C          0.07550       -0.01580        0.00120
O         -0.76810       -1.02230        0.00390
N          0.07480       -2.19950       -0.01020
C          1.32380       -1.77840       -0.02020
H          1.38660        2.80750        0.00400
H          2.10370       -2.52640       -0.03170
