13
gdb 5425	3.52045	1.88714	1.23803	4.9414	63.11	-0.253	-0.0509	0.2021	905.2027	0.095439	-398.647007	-398.639914	-398.63897	-398.678685	24.819
C          0.10200        1.50240        0.05910
C         -0.05390        0.02720        0.04960
C         -1.10690       -0.84270       -0.05470
C         -2.52490       -0.50860       -0.20220
O         -3.42400       -1.30920       -0.29160
N         -0.62410       -2.15350        0.00110
C          0.64500       -2.01410        0.13080
O          1.07810       -0.71970        0.16920
H          0.74420        1.83260       -0.76450
H         -0.86840        1.99060       -0.04290
H          0.56350        1.84040        0.99320
H         -2.72550        0.58640       -0.22740
H          1.40580       -2.77450        0.21250
