11
gdb 918	5.96876	2.87856	1.94199	1.2327	56.03	-0.2407	-0.0592	0.1815	601.5686	0.080879	-339.465889	-339.460617	-339.459673	-339.49494	19.562
N         -0.02240        1.33500        0.01010
C         -0.04020        0.07030        0.00340
O          1.16440       -0.66480       -0.00790
C          1.13680       -2.01040       -0.01510
N          0.10610       -2.76180       -0.01290
C         -1.11840       -2.09720       -0.00190
C         -1.22900       -0.75550        0.00610
H          0.93310        1.69200        0.00630
H          2.14280       -2.41980       -0.02340
H         -1.99140       -2.74090       -0.00010
H         -2.18260       -0.24470        0.01460
