16
gdb 4469	3.59938	1.74641	1.19385	1.855	69.54	-0.1748	0.0455	0.2204	988.2302	0.130878	-379.951584	-379.943241	-379.942297	-379.98388	30.899
C          0.08690        1.56030        0.06700
C          0.02800        0.06630        0.05550
C         -0.05030       -0.72330       -1.04570
N         -0.09140       -0.42200       -2.40610
O         -0.08720       -2.06670       -0.65390
C         -0.02690       -2.08090        0.69560
N         -0.13510       -3.33680        1.28240
C          0.04870       -0.81670        1.19640
H          1.00830        1.92330        0.53780
H          0.04820        1.94760       -0.95370
H         -0.74960        1.99060        0.63030
H         -0.93010       -0.77190       -2.85940
H          0.70990       -0.78300       -2.91520
H          0.31420       -4.05990        0.73410
H          0.20940       -3.34870        2.23260
H          0.10960       -0.53750        2.23670
