14
gdb 4521	3.70852	1.77411	1.2085	1.2881	61.68	-0.1635	0.0506	0.2141	935.7493	0.107649	-415.870361	-415.862434	-415.86149	-415.902095	29.6
N          0.14520        1.35900       -0.13630
C         -0.04980       -0.01530       -0.04860
C         -1.15900       -0.80520       -0.04100
C         -0.67490       -2.16630       -0.06160
N         -1.46110       -3.33020       -0.13490
C          0.67760       -2.08510       -0.06800
O          1.64250       -3.02870        0.01400
O          1.08150       -0.75820       -0.06490
H          0.93560        1.67260        0.41470
H         -0.68500        1.87710        0.11750
H         -2.18740       -0.48060       -0.04010
H         -2.23920       -3.30210        0.51410
H         -0.90530       -4.15360        0.06660
H          2.08210       -3.12310       -0.84120
