15
gdb 20367	6.09551	1.39901	1.25037	2.9905	67.12	-0.2564	-0.0052	0.2512	958.1348	0.120382	-362.645686	-362.639118	-362.638174	-362.676846	24.826
C         -0.19070        1.35860       -0.27050
C          1.21660        1.08450        0.17200
C          0.22230       -0.05660        0.08350
C         -0.28770       -0.69960        1.30700
N         -0.53900       -1.99060        1.30620
O         -1.00070       -2.29310        2.58700
C         -1.01150       -1.17080        3.31630
C         -0.57550       -0.11890        2.58220
H         -0.85440        1.87290        0.41580
H         -0.37390        1.57690       -1.31640
H          2.00910        1.11280       -0.56700
H          1.51710        1.41090        1.16150
H          0.34600       -0.75060       -0.73980
H         -1.35200       -1.27390        4.33520
H         -0.47340        0.90710        2.89370
