15
gdb 19343	4.19665	1.83741	1.53084	2.8675	66.78	-0.2225	-0.0176	0.2049	828.4938	0.118864	-362.586934	-362.580378	-362.579434	-362.617577	25.626
O         -0.12850        0.02100       -0.00330
C          0.00220        1.22570       -0.03220
C          1.28050        1.91850        0.04110
C          1.42310        3.39410        0.37450
C          1.78550        2.97390       -1.00120
C          3.12130        2.18720       -1.07260
N          3.72700        2.14800        0.28200
C          2.64770        1.20010       -0.08330
H         -0.87800        1.90230       -0.13730
H          0.47850        3.92250        0.46210
H          2.19180        3.68230        1.07990
H          1.23870        3.28920       -1.88000
H          3.71410        2.05290       -1.96700
H          4.60900        1.64370        0.20040
H          2.77060        0.12740       -0.04090
