19
gdb 9664	3.44591	1.32498	1.09472	2.2474	73.97	-0.2546	-0.0325	0.2221	1147.7683	0.163624	-365.061755	-365.052519	-365.051574	-365.095799	32.826
C         -0.21570        1.51930       -0.27160
C         -0.07120        0.09530        0.28110
C         -1.38180       -0.65470        0.21670
N         -1.74500       -1.29420       -1.04200
C         -1.49180       -2.16160        0.12220
C         -0.30010       -3.09200        0.08240
C         -2.71600       -2.70230        0.78680
O         -3.83020       -2.27250        0.59340
H          0.73550        2.05740       -0.22380
H         -0.54170        1.49400       -1.31580
H         -0.95410        2.09400        0.29810
H          0.68970       -0.44110       -0.29260
H          0.27240        0.13050        1.32270
H         -2.19690       -0.18560        0.76840
H         -2.75680       -1.24310       -1.16810
H          0.56800       -2.60730       -0.36440
H         -0.02830       -3.42200        1.09140
H         -0.52480       -3.98220       -0.51500
H         -2.54160       -3.54700        1.48830
