13
gdb 5456	3.54161	1.97503	1.27798	0.9606	70.55	-0.2286	-0.028	0.2006	891.6342	0.095105	-361.471524	-361.464296	-361.463352	-361.50305	26.219
C         -0.00060        1.52000        0.14360
C          0.01940        0.03660        0.02240
C         -0.00070       -0.73480       -1.10760
O          0.03160       -2.05760       -0.70850
C          0.06920       -1.99500        0.63430
N          0.06440       -0.79980        1.12950
C         -0.04470       -0.43930       -2.47760
C         -0.08270       -0.16060       -3.64910
H          0.89030        1.87730        0.67040
H         -0.03610        1.98880       -0.84220
H         -0.87110        1.84940        0.72050
H          0.09930       -2.93580        1.16210
H         -0.11580        0.08180       -4.68250
