17
gdb 12493	3.33	1.91355	1.31585	4.3726	65.11	-0.2337	0.0205	0.2541	921.5038	0.144663	-401.02954	-401.022274	-401.02133	-401.061198	27.506
O         -0.03070       -0.02000       -0.42110
C         -0.05050        1.15330       -0.09780
C         -1.37960        1.87520        0.17290
O         -1.46450        2.55150        1.40900
C         -0.93590        3.86240        1.42770
C          0.59190        3.90720        1.43430
C          1.22860        3.32940        0.16630
N          1.09800        1.88380        0.03540
H         -1.59430        2.56130       -0.66500
H         -2.14110        1.09370        0.17810
H         -1.32240        4.43750        0.56800
H         -1.32650        4.32650        2.33870
H          0.90310        4.95490        1.53180
H          0.96860        3.36510        2.30850
H          0.81690        3.84290       -0.71640
H          2.30070        3.54200        0.17460
H          1.92670        1.35750       -0.19970
