11
gdb 11185	4.26279	1.63431	1.42713	2.9868	50.97	-0.3043	-0.0273	0.277	830.6433	0.072328	-434.568646	-434.562061	-434.561117	-434.600056	22.888
O          0.03320        0.01030       -0.03010
C         -0.05230        1.19350        0.03020
C         -1.28160        2.08630        0.13350
O         -0.75790        3.36860        0.45190
C          0.57480        3.37510        0.01250
O          1.03810        2.03420        0.02220
C          0.69450        3.93380       -1.36070
N          0.77500        4.39000       -2.41800
H         -1.82770        2.08520       -0.81940
H         -1.94640        1.75780        0.93370
H          1.17660        3.96900        0.70490
