17
gdb 5576	3.33201	1.8526	1.21113	3.0144	72.59	-0.171	0.039	0.21	994.5385	0.143466	-360.07981	-360.071391	-360.070446	-360.11304	30.003
C          0.00670        1.47970        0.09690
N         -0.13170        0.03010        0.06450
C          0.56640       -0.70210        1.02930
C          0.69950       -2.07380        1.10680
C          0.20610       -3.17900        0.23820
N          1.44200       -2.27410        2.26380
C          1.69420       -1.06000        2.81310
N          1.18400       -0.08500        2.09040
H          1.04180        1.83080       -0.02970
H         -0.61310        1.90630       -0.69660
H         -0.34870        1.85740        1.05790
H         -0.00610       -0.34440       -0.86510
H          0.98530       -3.61150       -0.40500
H         -0.22350       -4.00080        0.82440
H         -0.58810       -2.80500       -0.41470
H          1.72550       -3.16660        2.63140
H          2.24910       -0.94110        3.73140
