15
gdb 6311	4.44659	1.16393	0.95259	3.5367	64.14	-0.2407	0.0128	0.2535	1148.7621	0.116823	-399.794458	-399.785604	-399.78466	-399.828407	31.903
N          0.51960        0.31740        0.79870
C         -0.00200        0.10020       -0.43840
O          0.38830        0.67000       -1.43920
C         -1.16560       -0.89900       -0.49590
C         -1.03110       -2.15200        0.39630
O         -1.02420       -1.83020        1.79610
C         -2.08220       -3.12300        0.09390
C         -2.98040       -3.88630       -0.14110
H          1.30230        0.94540        0.87770
H          0.20150       -0.21780        1.59280
H         -2.09350       -0.37750       -0.22860
H         -1.25960       -1.20190       -1.54040
H         -0.05200       -2.61170        0.21830
H         -1.93380       -1.63890        2.05320
H         -3.76040       -4.57620       -0.35180
