11
gdb 14603	6.29048	0.75512	0.6907	4.3423	66.13	-0.3012	-0.0699	0.2313	1465.7642	0.070601	-397.39396	-397.386031	-397.385086	-397.427993	25.755
O          0.31520        0.08250       -0.16430
C          0.38560        1.26440       -0.27670
O          0.67590        2.07380        0.77420
C          0.77120        3.47530        0.50700
C          2.13880        3.88490        0.21300
C          3.27040        4.22510       -0.03210
C          4.54950        4.61430       -0.31190
N          5.63530        4.94860       -0.55180
H          0.21520        1.82460       -1.21640
H          0.11060        3.75960       -0.32330
H          0.41010        3.98350        1.40590
