10
gdb 5471	3.76332	1.99376	1.30329	4.6532	57.41	-0.2514	-0.0516	0.1997	821.5823	0.062123	-413.499938	-413.493744	-413.492799	-413.530493	22.256
O          0.12890        1.36510        0.04240
C          0.08110        0.03700       -0.02090
C          0.01320       -0.74470       -1.14540
O         -0.01580       -2.05900       -0.70280
C          0.03610       -1.96710        0.62800
N          0.09470       -0.75730        1.09900
C         -0.02770       -0.47380       -2.51960
N         -0.06080       -0.23140       -3.65290
H          0.17150        1.61210        0.97560
H          0.02460       -2.89160        1.18410
