16
gdb 10873	3.22856	1.97334	1.57117	2.9374	65.65	-0.2498	-0.0066	0.2433	864.1484	0.12825	-383.69415	-383.686334	-383.68539	-383.725959	28.992
C         -0.08670        1.54760        0.00790
C         -0.03760        0.02880       -0.01710
C          1.23350       -0.64380       -0.60490
O          1.98590       -0.23200        0.60910
C          0.67340       -0.69050        1.17770
C          0.45000       -0.59130        2.64930
C          0.89470       -1.90250        0.22980
O          0.93050       -3.08900        0.21470
H          0.87810        1.96110        0.30760
H         -0.34310        1.94120       -0.98070
H         -0.85050        1.89760        0.71020
H         -0.98870       -0.41890       -0.32710
H          1.72020       -0.50770       -1.56810
H          0.44630        0.45190        2.97940
H         -0.51420       -1.04010        2.90770
H          1.23440       -1.12760        3.19050
