16
gdb 6515	3.02822	1.84714	1.42486	4.047	66.33	-0.2427	0.0108	0.2534	909.0151	0.128589	-379.909498	-379.900699	-379.899755	-379.942109	32.536
C         -0.01980        1.54560        0.06100
C          0.00840        0.03340       -0.00860
N         -1.22160       -0.51550       -0.52550
C          1.34330       -0.65550       -0.24150
C          0.67680       -0.70960        1.13440
O          1.19050        0.06400        2.17490
C          0.11620       -1.97870        1.55070
N         -0.31930       -3.00140        1.87290
H          0.88310        1.94450        0.52360
H         -0.10410        1.95810       -0.95070
H         -0.88880        1.87570        0.63560
H         -1.28350       -0.34550       -1.52520
H         -1.27910       -1.51920       -0.38540
H          1.36200       -1.56860       -0.82640
H          2.24050       -0.04710       -0.29270
H          1.99310       -0.36070        2.50010
