16
gdb 13334	5.4834	1.176	1.08357	4.0733	67.5	-0.2541	0.0106	0.2647	1085.8444	0.130548	-383.774945	-383.767444	-383.7665	-383.808174	26.727
O          0.04930       -0.04550       -0.13500
C          0.06710        1.14900       -0.14070
O          1.13020        1.86620        0.26010
C          1.04890        3.30470        0.21400
C          1.31310        3.86370        1.63240
C          2.75120        4.31690        1.57190
C          3.22930        4.30400        0.32960
C          2.19960        3.83980       -0.67110
H         -0.77910        1.78360       -0.47240
H          0.06150        3.58300       -0.16880
H          0.63810        4.69930        1.86110
H          1.12790        3.09100        2.38570
H          3.29820        4.63030        2.45340
H          4.22830        4.60510        0.03670
H          2.56170        3.05230       -1.34010
H          1.85790        4.66640       -1.30830
