18
gdb 18096	4.29993	1.80519	1.32776	1.9195	73.8	-0.2189	0.0309	0.2498	931.2384	0.15645	-347.819652	-347.812647	-347.811703	-347.851065	26.348
C          0.03080        1.50050       -0.04690
C          1.53610        1.90620        0.06240
C          2.15180        0.66280        0.63470
C          1.32360       -0.37720        0.63740
C         -0.02750       -0.05710        0.06750
C          2.02430       -1.59310        1.15320
O          3.34140       -1.13220        1.48400
C          3.49500        0.25360        1.14850
H         -0.52160        1.94260        0.78740
H         -0.43330        1.86770       -0.96570
H          1.96910        2.14920       -0.91820
H          1.67760        2.79610        0.68680
H         -0.86160       -0.39220        0.69500
H         -0.16990       -0.53650       -0.91120
H          1.55230       -2.02210        2.05110
H          2.08780       -2.40140        0.40610
H          4.29510        0.37020        0.39890
H          3.80970        0.81250        2.04380
