14
gdb 14636	12.55092	0.56236	0.54528	2.9417	86.63	-0.2361	-0.0355	0.2006	1942.097	0.103671	-345.372524	-345.363171	-345.362227	-345.409257	30.171
C          0.01700        1.51550        0.06760
C          0.02890        0.06470        0.02590
C          0.03890       -1.14500       -0.00940
C          0.04940       -2.50400       -0.04960
C          0.06720       -3.71410       -0.08420
C          0.03050       -5.16400       -0.13730
C         -1.39710       -5.71330       -0.25630
O         -1.68020       -6.67940       -0.90880
H          1.03120        1.91590        0.17620
H         -0.41100        1.93500       -0.84980
H         -0.57810        1.88210        0.91160
H          0.62030       -5.56720       -0.96760
H          0.45210       -5.58810        0.78790
H         -2.15470       -5.14970        0.32910
