18
gdb 8391	4.63984	1.22511	1.12886	0.2651	68.24	-0.2341	0.0709	0.305	1082.9297	0.152216	-384.900287	-384.891808	-384.890864	-384.933469	31.506
O          0.40550        1.29530        0.45370
C          0.16820       -0.08040        0.35340
C         -0.72120       -0.82280        1.32120
C         -1.14240       -0.61580       -0.12030
C         -2.36100        0.20680       -0.56740
C         -2.87590       -1.07570       -1.28800
O         -3.48500       -0.97030       -2.54680
C         -1.45620       -1.70120       -1.15860
H         -0.42990        1.73680        0.63820
H          1.07540       -0.57640        0.02130
H         -0.42330       -1.81640        1.64350
H         -1.23630       -0.24200        2.08220
H         -3.00990        0.64660        0.19530
H         -2.08500        0.98590       -1.29020
H         -3.59330       -1.60830       -0.65830
H         -2.87320       -0.51860       -3.13810
H         -0.87690       -1.57230       -2.08150
H         -1.39360       -2.74730       -0.84800
