9
gdb 23896	5.16736	0.8784	0.86516	1.725	46.69	-0.2961	-0.0972	0.199	1215.5933	0.043102	-527.665598	-527.657917	-527.656973	-527.700447	24.512
F          0.01630        0.04860       -0.02060
C         -0.01420        1.38450        0.00530
F          1.24540        1.82660       -0.03390
F         -0.63930        1.80400       -1.09790
C         -0.69900        1.87460        1.20750
C         -1.25800        2.28920        2.18890
C         -1.93790        2.75430        3.38310
O         -2.09450        3.91990        3.64930
H         -2.30620        1.94220        4.03880
