20
gdb 15001	4.20977	1.35004	1.09598	1.9434	70.68	-0.2558	0.0809	0.3368	1119.5121	0.1787	-386.1468	-386.138824	-386.13788	-386.179218	30.08
C         -0.09520        1.55650        0.06790
C          0.01410        0.02930       -0.01240
C          0.75110       -0.48950       -1.25390
C          2.23990       -0.11230       -1.27700
O          2.90010       -0.70810       -2.38600
C          2.75020       -2.10160       -2.37710
O          1.41060       -2.50560       -2.46350
C          0.66000       -2.01830       -1.35980
H          0.88620        2.03450        0.14820
H         -0.59070        1.96350       -0.82020
H         -0.67810        1.86010        0.94270
H          0.51140       -0.35150        0.89030
H         -0.99570       -0.40170       -0.00270
H          0.28870       -0.06810       -2.15600
H          2.38890        0.96540       -1.37570
H          2.71780       -0.43840       -0.33520
H          3.26010       -2.48580       -3.26270
H          3.20780       -2.52030       -1.45830
H          1.02720       -2.47840       -0.42450
H         -0.37180       -2.34700       -1.51410
