18
gdb 9723	2.77771	1.96453	1.63909	1.4423	72.67	-0.2513	0.046	0.2973	899.7006	0.152865	-347.781569	-347.773216	-347.772272	-347.81466	31.05
C         -0.03330        1.55770       -0.01650
C          0.04280        0.03140       -0.05310
C          0.82680       -0.53760       -1.25720
C          1.30470       -1.90000       -0.72830
C          1.37560       -1.68050        0.80370
O          0.82260       -0.38960        1.07040
C         -1.30960       -0.55690        0.00870
C         -2.40740       -1.04480        0.06040
H          0.97820        1.97240       -0.03360
H         -0.59240        1.93320       -0.87760
H         -0.53510        1.89020        0.89500
H          0.22100       -0.61090       -2.16220
H          1.67410        0.12610       -1.45710
H          0.57930       -2.68060       -0.97040
H          2.26680       -2.19730       -1.15120
H          0.81190       -2.45220        1.34300
H          2.40110       -1.67750        1.18710
H         -3.37840       -1.47190        0.11340
