22
gdb 10392	2.51579	1.85098	1.3617	1.0348	77.76	-0.2418	0.0802	0.322	1044.0967	0.19904	-350.192886	-350.183629	-350.182685	-350.226374	34.507
C         -0.53920        1.18510        0.34570
C         -0.03690       -0.24810        0.15060
C          0.96910       -0.70080        1.21770
C          0.32960       -0.98640        2.60210
C          0.32160       -2.50000        2.26080
C          1.32860       -2.21850        1.11280
O          2.06130        0.19420        1.34680
C          2.91060        0.28460        0.22400
H          0.29020        1.89720        0.32980
H         -1.24510        1.46280       -0.44290
H         -1.05150        1.30280        1.30620
H         -0.88210       -0.94740        0.15890
H          0.41990       -0.35060       -0.84230
H          1.04280       -0.74440        3.39320
H         -0.62640       -0.50670        2.82500
H          0.64700       -3.18560        3.04560
H         -0.64840       -2.84120        1.89000
H          1.15960       -2.71500        0.15340
H          2.36100       -2.39110        1.42850
H          3.77440        0.88190        0.52740
H          3.26680       -0.70310       -0.10420
H          2.43190        0.78010       -0.63280
