14
gdb 254	8.08563	2.19066	1.84258	4.0824	54.43	-0.2371	0.0217	0.2588	671.7683	0.119064	-266.609146	-266.602164	-266.60122	-266.639636	24.109
C         -0.02900        1.45840        0.01480
N          0.01150        0.00370        0.02700
C          0.80750       -0.51100        1.13400
C         -1.33350       -0.55120        0.00550
C         -1.33200       -2.00130       -0.22490
N         -1.34500       -3.14370       -0.39480
H          0.99190        1.84680       -0.03410
H         -0.56900        1.81050       -0.86980
H         -0.51500        1.88980        0.91080
H          0.40070       -0.23030        2.12410
H          0.85950       -1.60160        1.08080
H          1.82470       -0.11720        1.05980
H         -1.90140       -0.35800        0.93800
H         -1.89740       -0.08200       -0.80860
