15
gdb 2938	6.09771	2.08735	1.72623	0.8742	59.	-0.2526	0.0095	0.2621	744.1805	0.125089	-345.648365	-345.641555	-345.640611	-345.679359	24.232
C          0.00310        1.32120       -0.20920
O         -0.05360       -0.09090       -0.12030
C         -1.33660       -0.58250        0.16810
O         -2.25290       -0.38320       -0.89930
C         -2.52370       -1.62260       -1.54840
C         -1.90480       -2.66610       -0.66290
C         -1.25260       -2.07680        0.33090
H          1.04810        1.58990       -0.37880
H         -0.60770        1.69640       -1.03910
H         -0.34070        1.79600        0.72280
H         -1.73750       -0.04170        1.04210
H         -3.61210       -1.73570       -1.64690
H         -2.09780       -1.63900       -2.56370
H         -1.98800       -3.72860       -0.85280
H         -0.68270       -2.54300        1.12250
