17
gdb 9366	5.32474	0.90844	0.8132	1.0122	61.71	-0.251	0.0081	0.2591	1382.5172	0.140987	-438.155556	-438.146022	-438.145078	-438.191539	32.071
N         -0.14100        1.26500       -0.27420
C          0.07480       -0.14560       -0.01180
C          0.93340       -0.45480        1.21240
O          1.45200        0.37050        1.91960
O          1.04030       -1.78610        1.40510
C          1.85310       -2.20870        2.52150
C          1.78190       -3.72430        2.55090
O          2.30660       -4.30760        1.37530
H         -0.59200        1.68800        0.53240
H          0.76020        1.73040       -0.33950
H         -0.88750       -0.65610        0.11060
H          0.55010       -0.61770       -0.88040
H          2.87920       -1.86250        2.36600
H          1.46940       -1.76330        3.44460
H          2.38700       -4.09250        3.38580
H          0.74060       -4.03600        2.72920
H          1.81470       -3.93110        0.63730
