16
gdb 12893	2.66246	2.37667	1.75296	1.274	59.5	-0.2333	0.0709	0.3041	801.0075	0.130682	-420.846608	-420.83939	-420.838446	-420.877676	28.107
O         -0.03840        1.39150       -0.01950
C         -0.07610        0.00260       -0.05700
C         -0.47820       -0.75110        1.19400
O         -1.02170        0.09240        2.18000
C         -2.44150        0.18670        1.94130
C         -2.62610        0.05560        0.41740
C         -1.39480       -0.75560       -0.00070
O         -1.54950       -1.93120       -0.73250
H         -0.16840        1.63100        0.90980
H          0.70030       -0.44180       -0.67580
H          0.05440       -1.62680        1.55040
H         -2.95250       -0.63020        2.46900
H         -2.77900        1.13910        2.35760
H         -3.53430       -0.49180        0.15700
H         -2.64510        1.03530       -0.06900
H         -1.58510       -1.69850       -1.66700
