16
gdb 10102	2.19073	1.68233	0.99717	3.5331	68.16	-0.2852	-0.0017	0.2835	1149.7071	0.128865	-379.930589	-379.921553	-379.920608	-379.965256	30.592
C         -0.04580        1.55320       -0.08660
C         -0.03480        0.02690        0.01220
C          0.71650       -0.46980        1.25330
O          0.02190        0.00680        2.40290
C          0.67940       -0.05630        3.58970
N          0.11360        0.37170        4.62850
C          0.81000       -1.94330        1.27160
N          0.89450       -3.09540        1.28150
H          0.97130        1.95400       -0.15940
H         -0.59380        1.87110       -0.97740
H         -0.52580        1.99740        0.78820
H         -1.05520       -0.36670        0.05690
H          0.44360       -0.41770       -0.86670
H          1.74130       -0.07100        1.24530
H          1.68310       -0.49400        3.51480
H          0.72610        0.26230        5.43400
