16
gdb 3184	5.00022	2.04396	1.83649	1.7202	60.5	-0.2468	0.077	0.3237	746.9394	0.136634	-325.725688	-325.718688	-325.717744	-325.756565	26.101
C          0.01160        1.53010        0.02370
C          0.01470        0.01760       -0.00790
C          1.09410       -0.68630       -0.75410
N          1.06490       -0.72440        0.71850
C         -1.32070       -0.66580        0.07220
C         -2.52660       -0.05310        0.64360
O         -2.35960       -0.16300       -0.77310
H          1.00230        1.92740       -0.21570
H         -0.70190        1.92300       -0.70660
H         -0.27240        1.90710        1.01280
H          0.89430       -1.63800       -1.23940
H          1.84460       -0.07600       -1.24960
H          1.74510       -0.06950        1.09690
H         -1.24670       -1.75330        0.10080
H         -3.29620       -0.69190        1.07480
H         -2.49460        0.96000        1.03900
