20
gdb 19745	4.39764	1.94412	1.94411	0.	77.48	-0.2725	0.094	0.3664	814.0599	0.182372	-311.878205	-311.87232	-311.871376	-311.907747	25.473
C         -0.02100        1.50010       -0.01520
C          1.51060        1.79920       -0.03020
C          2.04250        0.36280        0.01720
C          1.14330       -0.43870       -0.97980
C          1.43430       -1.91390       -0.68390
C          1.43920       -1.86060        0.87580
C          1.14970       -0.36860        1.07210
C          0.02760       -0.03070        0.03690
H         -0.52690        1.93020        0.85490
H         -0.53240        1.87000       -0.90940
H          1.82830        2.33100       -0.93250
H          1.83370        2.39130        0.83180
H          3.12660        0.22210        0.01870
H          1.07370       -0.13460       -2.02750
H          0.66080       -2.57850       -1.08140
H          2.39330       -2.24010       -1.09840
H          0.66830       -2.49640        1.32250
H          2.40080       -2.15800        1.30560
H          1.08640        0.00620        2.09710
H         -0.92370       -0.56890        0.05820
