14
gdb 16831	3.84574	1.89716	1.43178	2.8128	57.31	-0.2479	-0.0337	0.2142	832.1889	0.106904	-419.673806	-419.666967	-419.666022	-419.704869	25.752
O         -0.12490        1.45860        0.08030
C          0.00660        0.05450        0.01150
C          0.72350       -0.60630        1.21490
C          0.04580       -1.97410        1.36410
O          0.54410       -2.99540        1.75830
C         -1.35300       -1.82320        0.81560
O         -1.97160       -0.61910        1.30480
C         -1.37470       -0.58170        0.01570
H          0.75280        1.84870        0.02070
H          0.50760       -0.24760       -0.92280
H          1.80190       -0.71930        1.09330
H          0.52700       -0.01130        2.11250
H         -1.99750       -2.68050        0.65140
H         -2.05350       -0.43740       -0.82000
