17
gdb 15823	5.18888	1.03176	0.89582	1.7821	66.23	-0.2478	0.0059	0.2537	1264.0569	0.140775	-400.989929	-400.981066	-400.980121	-401.024567	30.46
O         -0.19260        1.38740       -0.06090
C         -0.06150       -0.02670       -0.09580
C         -1.43090       -0.60880        0.22300
C         -1.43950       -2.12580        0.18780
O         -0.47370       -2.79520       -0.10990
N         -2.63820       -2.70150        0.61450
C         -3.90720       -2.60400       -0.08580
C         -3.17120       -3.90680        0.02780
H          0.66760        1.76990       -0.25600
H          0.27020       -0.38200       -1.08130
H          0.67240       -0.38690        0.63900
H         -1.76860       -0.26990        1.20860
H         -2.16830       -0.22300       -0.49230
H         -4.78060       -2.40960        0.53060
H         -3.91530       -2.11770       -1.05870
H         -2.66670       -4.28770       -0.85600
H         -3.51800       -4.66260        0.72640
