11
gdb 23676	3.76214	1.90712	1.26557	3.3585	54.92	-0.26	-0.0357	0.2243	827.2788	0.072805	-446.720144	-446.714459	-446.713515	-446.75014	21.651
F          0.03120        0.05900        0.00300
C         -0.01460        1.38470        0.01060
C         -1.25320        2.01410        0.03080
C         -1.24450        3.40520        0.03800
C         -0.03410        4.09090        0.02510
C          1.11920        3.31630        0.00530
F          2.29890        3.92240       -0.00760
N          1.15030        1.99940       -0.00210
H         -2.16510        1.43240        0.04020
H         -2.17950        3.95410        0.05370
H          0.02920        5.17070        0.02990
