20
gdb 1340	4.77351	1.65895	1.51298	1.0894	72.35	-0.219	0.0873	0.3063	934.0888	0.181313	-291.024232	-291.015563	-291.014619	-291.056693	31.966
C         -0.13010        1.56550       -0.26380
C          0.01610        0.12420        0.22060
N         -1.27100       -0.55870        0.15170
C         -1.58990       -1.29900       -1.06740
C         -1.36330       -2.02230        0.22090
C         -0.12220       -2.88330        0.37680
C         -2.55920       -2.51950        1.01080
H          0.82040        2.10180       -0.17920
H         -0.44240        1.59310       -1.31300
H         -0.88490        2.09340        0.32550
H          0.80380       -0.37690       -0.36620
H          0.34490        0.11600        1.26710
H         -2.59370       -1.16480       -1.46480
H         -0.81260       -1.38270       -1.82780
H          0.70700       -2.55050       -0.25030
H          0.21960       -2.89140        1.41880
H         -0.34940       -3.91860        0.10050
H         -2.85980       -3.52020        0.67950
H         -2.32230       -2.57860        2.07960
H         -3.40670       -1.84080        0.89110
