19
gdb 8362	5.45958	1.19716	1.17316	1.8657	72.59	-0.2417	0.0802	0.3219	1112.6844	0.165771	-364.980955	-364.973148	-364.972203	-365.013792	29.185
C          0.02350        1.50630       -0.06370
C          0.02600       -0.01040        0.00540
O          0.65540       -0.51090       -1.16860
C          0.72770       -1.88290       -1.23970
C         -0.39750       -2.95510       -1.29790
N          0.88530       -3.78460       -1.44780
C          1.35510       -2.66730       -2.39770
C          1.45700       -2.90780       -0.32510
H          1.04610        1.88940       -0.12310
H         -0.52250        1.84930       -0.94700
H         -0.45450        1.92690        0.82610
H          0.56740       -0.35750        0.89890
H         -1.00220       -0.39760        0.07450
H         -0.95540       -3.18490       -0.38670
H         -1.03870       -2.98090       -2.18270
H          0.83770       -2.66740       -3.36020
H          2.44030       -2.62660       -2.51960
H          2.54960       -2.88940       -0.30040
H          1.03360       -3.13420        0.65670
