15
gdb 12753	3.27325	1.83582	1.50393	5.99	65.54	-0.2215	0.0189	0.2404	866.3341	0.119881	-358.793862	-358.786439	-358.785495	-358.825413	28.034
N          0.23230        1.44700       -0.14010
C          0.01760        0.05270       -0.04470
C         -0.27560       -0.84950       -1.21300
C         -1.17020       -0.92350       -0.01030
N         -0.50930       -1.79210        0.98840
C          0.60960       -0.79240        1.10740
C          1.95490       -1.34270        0.93560
N          3.02120       -1.76010        0.77900
H          0.19250        1.79030       -1.09000
H         -0.38930        1.99570        0.44180
H         -0.69920       -0.32770       -2.06640
H          0.37220       -1.68700       -1.45890
H         -2.24330       -0.77870       -0.03440
H         -1.03180       -1.82030        1.85830
H          0.57200       -0.23170        2.04710
