19
gdb 14837	2.82854	1.59959	1.13219	4.0662	75.58	-0.3005	0.0289	0.3295	1090.6957	0.16592	-327.941469	-327.933009	-327.932064	-327.974661	30.903
C          0.13150        1.49100        0.20610
C          0.21800       -0.03530        0.11240
C          0.59990       -0.51560       -1.28700
C          2.10550       -0.34420       -1.65410
C          2.34180       -1.84830       -1.36010
C          0.79880       -2.07030       -1.43550
C          0.17910       -2.95350       -0.46270
N         -0.30780       -3.64530        0.32630
H          1.08450        1.96620       -0.05020
H         -0.62900        1.88510       -0.47690
H         -0.13400        1.80710        1.21910
H          0.94430       -0.41120        0.84460
H         -0.74580       -0.47730        0.39160
H         -0.10400       -0.10290       -2.01600
H          2.25440       -0.09700       -2.70820
H          2.67310        0.36680       -1.04970
H          2.94410       -2.42000       -2.06790
H          2.72350       -2.02450       -0.35280
H          0.50460       -2.39610       -2.43730
