18
gdb 19484	3.85567	1.59064	1.53621	2.8257	66.57	-0.2423	0.0668	0.3091	907.9301	0.155505	-384.90904	-384.901873	-384.900929	-384.940701	27.693
O          0.29290        0.66070        1.02320
C         -0.04280        0.41190       -0.33670
C         -1.37520       -0.30750       -0.33760
C         -1.98890       -0.98020       -1.59050
C         -0.90560       -1.95950       -2.09420
C         -0.54990       -2.58880       -0.70890
C         -1.54660       -1.77230        0.13950
O         -2.75570       -1.83480       -0.68600
H          1.13260        1.12890        1.04530
H         -0.13840        1.35220       -0.90450
H          0.73620       -0.18640       -0.83080
H         -2.13370        0.31050        0.14780
H         -2.59560       -0.44290       -2.32000
H         -1.33370       -2.68510       -2.78840
H         -0.06360       -1.46510       -2.58670
H         -0.77780       -3.65520       -0.66040
H          0.49150       -2.44360       -0.40960
H         -1.70270       -2.04180        1.18300
