19
gdb 8389	5.01832	1.25662	1.15791	2.368	73.14	-0.2133	0.0842	0.2975	1110.5445	0.163754	-365.01806	-365.009635	-365.008691	-365.050797	31.155
C         -0.03630        1.53970       -0.07350
C         -0.04210        0.03960        0.06650
O          1.22110       -0.63510       -0.10140
C          0.60880       -0.65330        1.17490
C          1.29130       -0.13950        2.44480
N          1.18860       -1.50760        3.00180
C          0.75930       -1.65780        4.37270
C          0.26710       -1.94070        1.92660
H          0.80610        1.97930        0.46700
H          0.04390        1.82870       -1.12650
H         -0.96580        1.96460        0.32130
H         -0.87280       -0.47150       -0.42520
H          2.31490        0.23470        2.33700
H          0.68610        0.60990        2.98250
H         -0.21200       -1.16840        4.58490
H          0.66220       -2.72070        4.61740
H          1.50820       -1.22800        5.04620
H         -0.79030       -1.98850        2.23580
H          0.54240       -2.88120        1.43730
