17
gdb 6343	5.2759	1.05747	0.89554	5.704	67.2	-0.2415	-0.0178	0.2237	1290.6015	0.13953	-401.068565	-401.058976	-401.058032	-401.104357	32.227
C         -0.08380        1.47080        0.22640
C          0.13930       -0.01830       -0.02320
C          0.73170       -0.29470       -1.40550
O          0.99170        0.56780       -2.20340
N          0.93730       -1.66430       -1.63730
C          1.46100       -2.28100       -2.78500
C          1.52790       -3.79640       -2.65240
O          1.81800       -1.68270       -3.76550
H          0.85660        2.02190        0.15320
H         -0.76560        1.89110       -0.51650
H         -0.50760        1.63320        1.22120
H          0.81220       -0.44540        0.73280
H         -0.80310       -0.57570        0.06660
H          0.67590       -2.28180       -0.88320
H          0.53140       -4.21890       -2.48320
H          1.94160       -4.20700       -3.57240
H          2.16200       -4.08820       -1.80820
