18
gdb 6811	2.96685	1.72291	1.44388	4.6068	72.08	-0.25	0.0149	0.2649	951.2765	0.153685	-343.98247	-343.97409	-343.973146	-344.014918	31.213
C         -0.12860        1.52990        0.00140
C         -0.05460        0.00450       -0.02620
C         -1.40320       -0.62690       -0.34120
C          1.17590       -0.51020       -0.83370
N          1.94830       -0.58680        0.42800
C          0.70240       -0.59780        1.21850
C          0.73580        0.16330        2.46770
N          0.73550        0.76400        3.45530
H          0.84700        1.96810        0.22780
H         -0.45630        1.90670       -0.97350
H         -0.84030        1.87890        0.75620
H         -1.76760       -0.28920       -1.31770
H         -1.34520       -1.71990       -0.36530
H         -2.15280       -0.34380        0.40610
H          0.98230       -1.48210       -1.30900
H          1.60200        0.17140       -1.57690
H          2.54170       -1.40010        0.54680
H          0.31770       -1.60270        1.44690
