18
gdb 20088	3.14532	1.74985	1.57577	2.707	67.43	-0.2306	0.0751	0.3057	909.6109	0.153222	-384.897035	-384.888911	-384.887966	-384.929665	30.221
C          0.17060        1.58930       -0.08740
C          0.06690        0.08080       -0.01920
C          1.29810       -0.79220       -0.12120
O          2.57560       -0.26460       -0.29320
C          0.55400       -0.71200        1.19550
C          1.12800       -0.04400        2.40420
C          2.40810       -0.46260        2.99720
O          2.31760        0.76030        2.24930
H          1.10420        1.95990        0.34080
H          0.13120        1.92480       -1.12900
H         -0.65510        2.06970        0.44860
H         -0.82700       -0.32200       -0.48990
H          1.19960       -1.71830       -0.68070
H          2.76110        0.30830        0.46580
H         -0.04420       -1.57940        1.46780
H          0.40280        0.41690        3.07670
H          2.58680       -0.33020        4.06220
H          2.97960       -1.25130        2.51310
