22
gdb 6236	2.48584	1.87091	1.78515	1.6874	77.23	-0.2383	0.0733	0.3116	956.4945	0.197773	-350.204379	-350.194968	-350.194024	-350.237449	36.139
C         -0.15910        1.53420       -0.00500
C         -0.04830        0.00680       -0.01620
C         -1.38960       -0.60730       -0.41070
C          1.19990       -0.47200       -0.79400
O          1.92600       -0.72620        0.42090
C          0.71690       -0.60120        1.22710
C          0.96260        0.28180        2.44330
C          0.25190       -1.99020        1.66810
H          0.80620        2.01320        0.17840
H         -0.52280        1.88790       -0.97650
H         -0.86340        1.88320        0.75800
H         -1.70570       -0.22770       -1.38910
H         -1.35030       -1.69690       -0.47850
H         -2.17380       -0.34240        0.30790
H          1.04580       -1.38840       -1.38220
H          1.70140        0.27160       -1.42530
H          1.36320        1.25790        2.16690
H          0.03790        0.43050        3.01150
H          1.68820       -0.20310        3.10480
H          0.98010       -2.41090        2.36860
H         -0.71990       -1.94700        2.17160
H          0.17190       -2.67680        0.82210
