16
gdb 4138	3.38737	1.83485	1.46869	0.1178	69.86	-0.2288	0.0229	0.2517	889.2568	0.12976	-379.788573	-379.781153	-379.780209	-379.820041	28.336
C          0.02290        1.50280       -0.10690
N          0.01020        0.04520        0.03450
C         -1.14250       -0.57280        0.83200
C         -0.20240       -1.79850        1.02150
C          0.67130       -0.53900        1.28800
C         -0.49710        0.00740        2.08970
N         -0.67850        0.70690        3.12210
O         -2.05380        1.00980        3.29550
H          1.00830        1.80360       -0.47620
H         -0.71770        1.78310       -0.86240
H         -0.18960        2.05860        0.81840
H         -2.17390       -0.53810        0.48950
H         -0.40190       -2.45530        1.86830
H          0.03900       -2.32220        0.09560
H          1.74180       -0.46570        1.47000
H         -2.03870        1.52100        4.11170
