20
gdb 7513	4.68411	1.15514	1.08911	0.7324	81.04	-0.2571	0.053	0.3101	1174.9245	0.174424	-311.832021	-311.822625	-311.82168	-311.865647	35.082
C         -0.03040        1.43640       -0.30070
C          0.08160       -0.03520        0.03450
C          1.41280       -0.75440        0.01260
C          0.68540       -0.55940        1.32240
C          1.25910        0.38860        2.35720
C          0.00380       -1.79170        1.92550
C          0.91150       -2.65380        2.67880
C          1.67140       -3.35290        3.29470
H          0.84490        2.00260        0.02900
H         -0.11890        1.57690       -1.38370
H         -0.91350        1.88910        0.16460
H         -0.75890       -0.62050       -0.33370
H          1.46520       -1.75180       -0.41170
H          2.30250       -0.15610       -0.15930
H          1.79480        1.22240        1.89800
H          0.46980        0.80740        2.99350
H          1.96310       -0.14150        3.00690
H         -0.81560       -1.46920        2.58320
H         -0.46300       -2.37840        1.12460
H          2.33600       -3.97720        3.83830
