14
gdb 15475	2.85938	2.05894	1.45921	1.6546	63.54	-0.2436	-0.0367	0.207	861.2785	0.106092	-382.517429	-382.510062	-382.509118	-382.549428	26.848
O          0.02280        0.08340       -0.40200
C          0.02320        1.23780       -0.08790
C         -1.19060        2.10030        0.26800
O         -0.68850        3.36320        0.64580
C          0.55230        3.56040       -0.02740
C          1.25710        2.18800       -0.00160
C          1.98540        1.93690        1.23150
C          2.56660        1.72700        2.26220
H         -1.84680        2.15750       -0.61680
H         -1.76350        1.66770        1.09310
H          0.38690        3.87430       -1.07020
H          1.09830        4.34210        0.50090
H          1.89760        2.01850       -0.87210
H          3.08930        1.54030        3.16770
