17
gdb 6273	2.8185	1.61228	1.15984	1.8162	68.51	-0.2234	-0.0885	0.1349	1052.5167	0.138944	-400.995101	-400.985756	-400.984811	-401.030024	31.717
C          0.79960        0.80050       -0.21140
N         -0.35240       -0.05610        0.02180
C         -0.26000       -0.83380        1.24630
C         -1.62200        0.64470       -0.15130
C         -1.89480        0.54850       -1.64080
O         -1.66450        1.41170       -2.45560
C         -2.43300       -0.80150       -2.13590
O         -2.88700       -1.64780       -1.41120
H          1.70990        0.19420       -0.24130
H          0.69600        1.31180       -1.17230
H          0.92240        1.57140        0.57190
H         -0.27960       -0.21080        2.15950
H         -1.08790       -1.54640        1.29280
H          0.67600       -1.40090        1.24630
H         -2.40630        0.11150        0.39030
H         -1.60090        1.69510        0.17500
H         -2.41370       -0.89000       -3.24310
