12
gdb 1005	9.01478	1.96543	1.61363	1.6894	67.41	-0.2014	0.0006	0.202	717.6309	0.0915	-286.248451	-286.24246	-286.241516	-286.277934	22.9
C          0.09810       -1.18880       -0.00480
C          0.00110        0.01310        0.00300
C         -0.09140        1.41780        0.01180
C         -1.19140        2.26330        0.03100
C         -0.71170        3.59430        0.03180
C          0.66660        3.53710        0.01310
N          1.03250        2.22240        0.00120
H          0.17070       -2.24770       -0.01160
H         -2.21960        1.93830        0.04300
H         -1.30560        4.49490        0.04460
H          1.40770        4.32000        0.00750
H          1.97430        1.87130       -0.01330
