15
gdb 15597	3.57747	1.78348	1.39899	4.28	61.04	-0.2725	0.0231	0.2956	876.3661	0.120091	-399.808016	-399.800663	-399.799719	-399.840083	26.757
O         -0.00350        1.49870        0.33080
C          0.02070        0.12800        0.02180
C          0.71140       -0.68880        1.11700
O         -0.27540       -0.75060        2.14030
C         -1.49580       -1.10060        1.50090
C         -1.40180       -0.53300        0.04140
C         -2.47940        0.38460       -0.29830
N         -3.35810        1.09070       -0.55280
H         -0.28180        1.58740        1.25110
H          0.48950        0.03720       -0.96000
H          0.98630       -1.69530        0.76160
H          1.59570       -0.18930        1.51660
H         -1.61620       -2.19180        1.46760
H         -2.31930       -0.67240        2.07490
H         -1.42040       -1.35860       -0.67650
