10
gdb 23848	5.82647	1.65125	1.28661	2.1297	53.75	-0.2688	-0.1124	0.1563	817.7977	0.059641	-454.701034	-454.694915	-454.693971	-454.732265	22.022
F         -0.00720        0.09910        0.00430
C         -0.03190        1.41860        0.01100
N         -1.17050        1.98980        0.02850
O         -1.13030        3.37400        0.03500
C          0.07830        4.09800        0.02340
N          0.04840        5.35880        0.03050
N          1.28520        3.40060        0.00410
C          1.23620        2.12270       -0.00180
H         -0.91360        5.69860        0.04480
H          2.15970        1.54580       -0.01680
