20
gdb 9625	3.34245	1.24261	1.09458	3.4055	77.34	-0.2423	-0.0161	0.2263	1175.0779	0.175001	-349.013819	-349.004617	-349.003673	-349.04758	33.714
C          0.19560        1.55320        0.21290
C         -0.16800        0.10200       -0.12990
C          0.63600       -0.47040       -1.29330
C          0.44880        0.24720       -2.61980
C          1.97390       -1.07310       -1.01400
C          0.82280       -1.99290       -1.41620
C          0.28300       -2.95680       -0.43410
O         -0.19440       -4.02670       -0.72830
H          1.26390        1.64970        0.43390
H         -0.03940        2.23930       -0.60590
H         -0.36070        1.88970        1.09270
H         -0.01800       -0.51250        0.76300
H         -1.23780        0.03820       -0.36800
H          0.78850        1.28620       -2.56180
H          1.01760       -0.24040       -3.41680
H         -0.60610        0.25480       -2.91610
H          2.77870       -0.95200       -1.73100
H          2.30310       -1.13060        0.01980
H          0.82790       -2.38540       -2.42790
H          0.35960       -2.64550        0.63260
