15
gdb 17041	3.94598	1.72145	1.40881	3.6578	62.05	-0.2448	-0.0398	0.205	871.1071	0.119105	-399.724328	-399.717484	-399.71654	-399.755668	25.877
O         -0.05730        1.35630       -0.33300
C         -0.00720       -0.01290       -0.14400
C          0.08280       -0.55940        1.31730
N         -1.32780       -0.02560        1.48750
C         -1.33620       -0.78260        0.15930
C         -0.50900       -1.92360        0.80300
C          0.32060       -2.88830       -0.00170
O          0.44310       -2.87420       -1.20170
H         -0.66500        1.68500        0.34660
H          0.65140       -0.45130       -0.88870
H          0.85330       -0.40570        2.07430
H         -1.82670       -0.55880        2.20480
H         -2.23630       -0.86460       -0.45000
H         -1.02560       -2.46260        1.60610
H          0.84020       -3.65930        0.61360
