16
gdb 517	14.22676	1.26311	1.19433	0.	65.82	-0.239	0.0588	0.2979	1025.2475	0.141612	-234.484521	-234.476522	-234.475578	-234.518462	26.786
C         -0.04230        1.56970        0.05140
C          0.00640        0.03190       -0.00630
C          0.68370       -0.47480       -1.19600
C          1.24790       -0.86130       -2.18810
C          1.92520       -1.36800       -3.37780
C          1.97400       -2.90590       -3.43550
H          0.96710        1.99010        0.05410
H         -0.57230        1.97390       -0.81540
H         -0.55760        1.90300        0.95750
H          0.50870       -0.35050        0.89200
H         -1.01600       -0.36650        0.03080
H          1.42300       -0.98570       -4.27610
H          2.94770       -0.96970       -3.41490
H          2.50390       -3.31010       -2.56870
H          0.96460       -3.32620       -3.43820
H          2.48930       -3.23920       -4.34150
