18
gdb 17206	4.35582	1.76663	1.55096	1.7187	71.38	-0.239	0.0733	0.3123	874.0302	0.154702	-347.751229	-347.744395	-347.743451	-347.782251	27.028
C         -0.24790        1.41050        0.07850
C          1.17590        0.91910       -0.04890
C          0.04300       -0.06130        0.02970
C         -0.17060       -1.11360        1.13760
C         -0.63390       -2.10910        0.04680
O         -2.05480       -2.05640       -0.19250
C         -1.88380       -1.15240       -1.31040
C         -0.36800       -1.05320       -1.06810
H         -0.56050        1.83640        1.02650
H         -0.70820        1.87320       -0.78930
H          1.67700        1.04820       -1.00340
H          1.82940        1.01060        0.81330
H          0.75350       -1.41100        1.64410
H         -0.93900       -0.89620        1.88420
H         -0.24950       -3.13200        0.06430
H         -2.16370       -1.63600       -2.25550
H         -2.46160       -0.22730       -1.19340
H          0.30300       -1.19060       -1.91610
