15
gdb 13180	3.71476	1.46124	1.12503	2.6627	61.06	-0.2635	0.0018	0.2653	1007.5591	0.118499	-399.775519	-399.767523	-399.766578	-399.808684	27.804
O         -0.26330        1.31360        0.04740
C          0.02250       -0.07100        0.00070
C          0.69500       -0.44220       -1.26280
N          1.25700       -0.71400       -2.23520
C          0.84260       -0.54590        1.20380
C          0.06890       -0.48790        2.53690
O         -0.06120       -1.92460        2.56660
C          0.83160       -2.07180        1.44410
H          0.56520        1.79970       -0.03860
H         -0.95410       -0.56900        0.02040
H          1.82670       -0.07070        1.19320
H          0.65240       -0.11070        3.38600
H         -0.90010        0.02250        2.51170
H          0.40290       -2.69170        0.64760
H          1.80110       -2.49220        1.73810
