13
gdb 562	9.86113	2.62587	2.15831	2.0739	52.85	-0.2475	0.0325	0.28	592.3635	0.108198	-286.484121	-286.477884	-286.47694	-286.514266	21.051
C         -0.03880        1.44320       -0.12380
N         -0.04370       -0.00320       -0.28940
C         -1.05230       -0.65440        0.05290
C         -1.43940       -2.11850        0.04360
C         -2.75900       -1.60080        0.65010
O         -2.25930       -0.23170        0.60170
H          0.80280        1.72760        0.51740
H          0.13100        1.91480       -1.09800
H         -0.96140        1.84950        0.30680
H         -1.51060       -2.56700       -0.94870
H         -0.83270       -2.75660        0.68820
H         -3.65360       -1.71300        0.03240
H         -2.97190       -1.90370        1.67840
