13
gdb 1408	5.91579	1.51412	1.39501	3.2465	56.22	-0.2711	-0.0013	0.2699	848.3537	0.101257	-340.665904	-340.658365	-340.65742	-340.698145	25.109
C         -0.18960        1.40490        0.06680
N          0.01730       -0.03200       -0.02890
C          0.00920       -0.81410        1.18520
C         -1.30770       -0.83740        1.84890
N         -2.33950       -0.83760        2.36780
C          0.17570       -0.63510       -1.24990
O          0.18860       -0.06070       -2.31290
H          0.59490        1.86790        0.67660
H         -0.15140        1.80800       -0.94470
H         -1.16360        1.62920        0.51510
H          0.30050       -1.84320        0.95030
H          0.74450       -0.42610        1.90280
H          0.30330       -1.73130       -1.15150
