17
gdb 1479	6.82924	1.19774	1.09019	3.2548	61.44	-0.2499	-0.0204	0.2295	1052.4737	0.145476	-346.86207	-346.853274	-346.85233	-346.895833	29.951
C         -0.05120        1.56030       -0.11500
C         -0.04670        0.03400        0.03790
C         -1.46850       -0.52880        0.07170
O         -2.14030        0.03030        1.18920
C          0.76910       -0.65150       -1.07480
C          2.24360       -0.32700       -0.99010
O          2.92200        0.07160       -1.90070
H          0.96180        1.97170       -0.06360
H         -0.47630        1.85140       -1.08300
H         -0.65210        2.01870        0.67280
H          0.41160       -0.21840        1.00490
H         -1.98400       -0.27930       -0.87070
H         -1.42780       -1.62790        0.14360
H         -3.06010       -0.24770        1.16100
H          0.68060       -1.74360       -0.96940
H          0.40800       -0.37920       -2.07190
H          2.68600       -0.49720        0.02100
