13
gdb 21342	6.14683	1.36451	1.18692	2.4712	64.03	-0.259	-0.001	0.2579	951.3275	0.097762	-357.66729	-357.660516	-357.659571	-357.699919	23.795
N         -0.40170       -0.73640       -1.03500
C         -0.15170        0.17660       -0.37410
C          0.14030        1.35450        0.44890
N          1.45340        1.90610        0.18550
C          2.02620        2.20600       -1.01000
C          3.24160        2.78780       -0.72530
C          3.30770        2.79940        0.68420
N          2.22240        2.26660        1.23630
H         -0.64470        2.10260        0.28170
H          0.12350        1.08390        1.50720
H          1.53860        1.97070       -1.94280
H          3.97430        3.14150       -1.43190
H          4.10040        3.16840        1.31810
