13
gdb 11179	4.04269	1.58718	1.38307	4.5518	57.88	-0.2888	-0.011	0.2778	878.3706	0.096619	-398.65506	-398.648254	-398.647309	-398.686613	24.414
O          0.05230        0.01380        0.12840
C         -0.04980        1.19950        0.09340
C         -1.30380        2.06460        0.08660
C         -0.79020        3.45300        0.47120
C          0.67810        3.39590       -0.02090
O          1.05860        2.01870        0.05280
C          0.82480        3.88590       -1.40260
N          0.91910        4.28990       -2.48050
H         -1.72050        2.04640       -0.92650
H         -2.05120        1.64920        0.76250
H         -1.34220        4.27900        0.02300
H         -0.79060        3.58260        1.55640
H          1.35820        3.96170        0.62050
