13
gdb 162	9.13872	6.09542	4.76786	0.2527	48.92	-0.2519	0.0987	0.3506	350.7167	0.116089	-195.179738	-195.175335	-195.174391	-195.206606	16.868
C          0.02150        1.45940        0.10040
C          1.33500        0.74820       -0.06780
C          1.75360        0.09380        1.25470
C          0.40810       -0.70750        1.26350
C          0.01920       -0.03530       -0.05910
H         -0.24150        1.91170        1.05520
H         -0.31830        2.02060       -0.76430
H          1.99570        0.96590       -0.89850
H          2.62020       -0.56360        1.15500
H          1.93160        0.77730        2.09200
H          0.57230       -1.78330        1.16830
H         -0.26950       -0.53360        2.10640
H         -0.49510       -0.51710       -0.88210
