16
gdb 13085	4.33319	1.31015	1.08232	3.0878	66.71	-0.2448	0.0518	0.2966	1071.4854	0.128293	-383.676776	-383.668275	-383.66733	-383.710442	30.235
O          0.06370        1.40750       -0.19490
C          0.07330        0.01780        0.02460
C         -0.01900       -0.48490        1.48320
O         -1.26540       -1.15670        1.21080
C         -1.31900       -0.63780       -0.13630
C         -2.49360        0.31930       -0.36530
C         -3.77660       -0.37050       -0.34060
C         -4.82480       -0.95790       -0.32780
H          0.96080        1.74190       -0.10370
H          0.85500       -0.47550       -0.56540
H          0.75920       -1.18090        1.81840
H         -0.13140        0.32450        2.21620
H         -1.36250       -1.45500       -0.86600
H         -2.46620        1.10850        0.39280
H         -2.34890        0.81570       -1.33310
H         -5.75520       -1.46860       -0.30910
