16
gdb 10644	2.6695	1.85515	1.35271	4.5002	66.25	-0.2424	0.0144	0.2567	951.7026	0.129385	-379.894882	-379.886198	-379.885254	-379.927895	31.022
C          0.07440        1.24470       -0.27290
O         -0.07060       -0.07000        0.25390
C         -1.34200       -0.61180        0.10160
C         -1.71830       -1.20110       -1.25450
C         -1.38260       -2.11290       -0.08920
N         -0.14930       -2.83360        0.03930
C         -2.37440        0.02630        0.89310
N         -3.19370        0.55490        1.51550
H          1.11410        1.53080       -0.10610
H         -0.14620        1.26940       -1.34800
H         -0.58450        1.95310        0.24390
H         -2.74680       -1.11790       -1.58710
H         -0.96290       -1.07960       -2.02390
H         -2.23210       -2.60730        0.37460
H         -0.05630       -3.52190       -0.70050
H          0.63350       -2.19160       -0.02730
