20
gdb 17286	2.9641	2.37443	1.82759	0.2469	77.52	-0.2299	0.0897	0.3197	839.9834	0.178198	-311.821891	-311.814841	-311.813897	-311.852432	29.323
C         -0.00990        1.51890       -0.01450
C         -0.00130        0.00680        0.00620
C         -1.37560       -0.73970        0.00090
C         -0.95330       -1.52510        1.28590
C          0.42220       -0.79500        1.27710
C          1.60040       -1.40970        0.48980
C          1.15410       -2.14150       -0.74470
C          1.17670       -0.64070       -0.77030
H          0.98480        1.92220        0.20850
H         -0.30710        1.89940       -1.00020
H         -0.71060        1.92420        0.72390
H         -2.22480       -0.06950        0.16060
H         -1.58490       -1.34420       -0.88560
H         -1.56220       -1.28120        2.15980
H         -0.91490       -2.61370        1.19440
H          0.71570       -0.26820        2.18660
H          2.59470       -1.55810        0.89510
H          1.95740       -2.61320       -1.30290
H          0.22510       -2.70260       -0.77640
H          1.79220       -0.10000       -1.48170
