11
gdb 430	5.38555	4.06938	2.52801	1.2035	43.85	-0.2717	0.0123	0.284	494.7347	0.084855	-322.412936	-322.407158	-322.406214	-322.44232	19.922
O          0.12790        1.39400        0.14450
C          0.01700       -0.00140        0.04880
C         -1.42000       -0.51450       -0.16350
O         -1.01730       -1.12530       -1.43560
C          0.25340       -0.60850       -1.32610
N          1.22760       -0.60440       -2.11350
H          0.97730        1.64090       -0.23920
H          0.56000       -0.51870        0.85110
H         -1.79240       -1.26820        0.53240
H         -2.15090        0.28060       -0.32230
H          1.01190       -1.07290       -2.99500
