17
gdb 5320	4.39183	1.5115	1.217	1.1935	69.03	-0.2391	0.0074	0.2465	1004.4381	0.142876	-363.904058	-363.896356	-363.895412	-363.936357	28.396
C          0.43830        1.59090       -0.26450
C          0.04200        0.14670        0.06500
C          0.22020       -0.78170       -1.15050
C          0.79000       -0.38600        1.25170
C          1.79750        0.15750        1.97930
O          2.14960       -0.72760        2.96510
C          1.32000       -1.77550        2.77480
N          0.49770       -1.64340        1.78900
H          1.49550        1.65410       -0.54690
H         -0.15070        1.96690       -1.10620
H          0.27360        2.25820        0.58740
H         -1.02400        0.13410        0.33140
H          1.26320       -0.78460       -1.48600
H         -0.05750       -1.80730       -0.89650
H         -0.40460       -0.44710       -1.98490
H          2.34540        1.08240        1.95300
H          1.42320       -2.60600        3.45570
