16
gdb 5714	4.77131	2.00481	1.4508	1.4716	71.36	-0.1704	0.0509	0.2213	837.2971	0.134957	-342.811365	-342.804962	-342.804018	-342.841539	25.673
C          0.01160        1.43910        0.10120
C          1.47020        1.93400       -0.13560
C          2.23230        0.64430       -0.01690
C          3.49320        0.11660        0.10180
N          3.35950       -1.25200        0.06740
C          2.02380       -1.61420       -0.07260
C          1.32240       -0.43660       -0.12950
N          0.00410        0.01820       -0.33410
H         -0.23000        1.52870        1.17150
H         -0.72700        2.01650       -0.46230
H          1.56900        2.37090       -1.13810
H          1.74990        2.70850        0.58450
H          4.46340        0.57420        0.21110
H          4.11320       -1.90290        0.19330
H          1.72840       -2.64910       -0.11030
H         -0.71410       -0.52910        0.12280
