22
gdb 5850	2.88409	1.36496	1.19619	2.6043	74.17	-0.2616	0.0665	0.3281	1137.9848	0.196791	-387.341548	-387.330963	-387.330019	-387.376607	39.071
C          0.04590        1.53890       -0.10160
C         -0.00720        0.01550        0.08610
C          0.80700       -0.39800        1.31630
O          2.15890       -0.02180        1.08070
C         -1.45390       -0.55060        0.08290
C         -1.45720       -2.08850        0.05350
C         -2.31010       -0.04040        1.25300
O         -2.00830       -0.07560       -1.15310
H          1.08530        1.85740       -0.20160
H         -0.50920        1.83850       -0.99120
H         -0.37680        2.06630        0.76130
H          0.48790       -0.44210       -0.78010
H          0.41360        0.10560        2.21400
H          0.73690       -1.48180        1.48690
H          2.66510       -0.21440        1.87480
H         -1.09650       -2.52840        0.98750
H         -2.47900       -2.45560       -0.10180
H         -0.83740       -2.45690       -0.76910
H         -2.37680        1.04970        1.24370
H         -3.32780       -0.44110        1.17380
H         -1.91170       -0.35800        2.22170
H         -2.91210       -0.40280       -1.21140
