17
gdb 17334	3.54693	2.17273	1.78785	3.2674	67.03	-0.2336	0.0735	0.3072	800.5444	0.143229	-363.824082	-363.817376	-363.816431	-363.854488	26.913
C         -0.01080        1.55180        0.02740
C          0.11110        0.05100        0.01210
N         -0.80830       -0.79840        0.79960
C          0.62810       -0.77120        1.14480
C          1.44550       -1.94600        0.60670
C          1.38020       -1.81550       -0.91380
O          0.07440       -1.94950       -1.47820
C          0.57730       -0.63130       -1.26890
H          0.89340        2.02810       -0.36840
H         -0.85670        1.88770       -0.58360
H         -0.16210        1.92310        1.04620
H         -1.31200       -0.20480        1.45710
H          0.92320       -0.31470        2.08570
H          2.48750       -1.85750        0.93500
H          1.06360       -2.91290        0.94870
H          2.19170       -2.19940       -1.52910
H          0.73820       -0.03600       -2.16470
