12
gdb 23726	5.64755	1.51558	1.19491	2.7441	60.5	-0.2174	-0.0501	0.1673	886.4996	0.085296	-422.687683	-422.681603	-422.680659	-422.717948	23.378
F          0.00880       -0.02190        0.00340
C         -0.02500        1.31570        0.01050
C         -1.21020        1.97420        0.02970
N         -1.20910        3.33970        0.03640
C         -0.06820        4.16570        0.02510
O         -0.18590        5.37960        0.03270
C          1.17290        3.40710        0.00470
C          1.19100        2.04620       -0.00230
H         -2.16580        1.46700        0.04010
H         -2.08530        3.84270        0.05070
H          2.08500        3.99010       -0.00480
H          2.12480        1.49350       -0.01760
