17
gdb 19843	3.33872	2.54297	1.81279	2.6729	67.16	-0.2337	0.07	0.3037	765.8015	0.145133	-363.81785	-363.811676	-363.810732	-363.847788	25.429
C         -0.00200        1.53220       -0.02500
C          1.30130        0.78650        0.02920
O          2.02470        0.86870        1.22320
C          2.13150       -0.34510        1.94980
C          0.77860       -0.94490        2.28240
N         -0.29050        0.02110        2.57990
C         -0.32170       -0.72690        1.30760
C          0.00090        0.02050        0.04280
H         -0.28020        2.05350        0.88300
H         -0.29440        2.00350       -0.95670
H          1.92800        0.74470       -0.86070
H          2.72420       -1.09250        1.39530
H          2.67990       -0.08940        2.86230
H          0.81320       -1.88010        2.83750
H         -0.95800       -0.38220        3.23140
H         -1.07190       -1.50650        1.20550
H         -0.25720       -0.51760       -0.86400
