13
gdb 5217	8.25636	1.21609	1.06003	2.9297	69.23	-0.2003	-0.0142	0.1861	1039.2127	0.096969	-394.823206	-394.815873	-394.814929	-394.855573	25.439
N         -0.09930        1.35290       -0.03010
C         -0.06870        0.00490       -0.00520
N         -1.14950       -0.69320       -0.00780
C         -1.00570       -2.05320       -0.00850
N          0.06360       -2.80480       -0.02310
C         -0.42600       -4.10060       -0.01330
C         -1.77840       -4.06970        0.00610
O         -2.16650       -2.75720        0.00920
H          0.74180        1.89140        0.06340
H         -0.98810        1.82470        0.01410
H          0.93030       -0.43920        0.00340
H          0.23000       -4.95710       -0.02180
H         -2.56310       -4.80550        0.01800
