16
gdb 1546	4.97699	1.45458	1.19971	4.5961	62.32	-0.2769	0.0204	0.2972	997.2425	0.134689	-325.785038	-325.776569	-325.775625	-325.818481	28.799
C          0.06320        1.51120       -0.01920
C         -0.03050       -0.00410       -0.04240
O          0.68490       -0.46930       -1.17960
C          0.73390       -1.87670       -1.30240
C         -0.50570       -2.45630       -2.00010
C          1.95520       -2.20740       -2.06000
N          2.90040       -2.49980       -2.65550
H          1.10760        1.82920        0.03690
H         -0.37760        1.93650       -0.92490
H         -0.47150        1.90900        0.84820
H          0.40510       -0.43640        0.87290
H         -1.08330       -0.32220       -0.08680
H          0.84120       -2.33890       -0.30750
H         -0.41410       -3.54050       -2.10770
H         -1.40040       -2.24250       -1.41030
H         -0.61810       -2.00980       -2.99050
