12
gdb 5017	3.33558	2.53029	1.43883	2.5034	61.95	-0.2218	-0.0528	0.169	782.2138	0.085581	-414.685239	-414.679032	-414.678088	-414.715676	23.626
O         -0.07130        1.28520        0.17230
C          0.01190       -0.04070        0.03970
N          1.15230       -0.61970       -0.07980
C          1.15150       -2.00200       -0.21310
C          0.01610       -2.70960       -0.21790
O         -1.20130       -2.10670       -0.09180
C         -1.29300       -0.73840        0.04530
N         -2.40010       -0.13850        0.16500
H          0.84000        1.61450        0.15320
H          2.11390       -2.48640       -0.31350
H         -0.06860       -3.78260       -0.31670
H         -3.17400       -0.80480        0.14400
