12
gdb 1940	7.95712	1.63331	1.55779	3.3428	57.29	-0.2543	0.0197	0.274	768.6877	0.089343	-323.360126	-323.353484	-323.35254	-323.390922	24.013
O          0.02860       -0.05480        0.05920
C         -0.03170        1.14260        0.03740
C         -1.15810        2.20450        0.05620
C         -0.00420        3.26370       -0.03190
N          0.93010        2.12610       -0.01070
C          0.03750        4.09470       -1.22490
C          0.07780        4.79090       -2.20370
H         -1.81410        2.17570       -0.81360
H         -1.74680        2.23500        0.97390
H          0.07580        3.88980        0.86380
H          1.92860        2.08730       -0.15510
H          0.11080        5.40260       -3.07150
