17
gdb 15892	2.33899	2.1234	1.35072	3.9349	65.77	-0.2451	-0.0281	0.2169	953.3097	0.140777	-400.983357	-400.975098	-400.974154	-401.016185	29.936
C         -0.01680        1.38800       -0.01070
N          0.07150       -0.05640        0.08430
C         -1.17820       -0.81110        0.34810
C         -0.39930       -1.62680        1.39030
O         -0.61260       -2.60260        2.04070
C          0.78060       -0.64470        1.25530
C          2.15680       -1.20670        0.91110
O          2.10890       -1.94630       -0.28690
H          0.98630        1.81540       -0.10160
H         -0.58190        1.66930       -0.90460
H         -0.50920        1.84690        0.86610
H         -1.97470       -0.21340        0.82080
H         -1.59520       -1.34660       -0.51070
H          0.83270        0.02530        2.12990
H          2.88540       -0.37990        0.85150
H          2.48310       -1.87940        1.71170
H          1.56090       -1.41550       -0.88350
