17
gdb 20579	3.26632	1.97466	1.25228	2.0922	71.71	-0.1944	0.04	0.2344	964.3003	0.142997	-360.079031	-360.070299	-360.069354	-360.112196	31.326
C          0.00520        1.50520        0.12850
C          0.00840        0.02220       -0.04990
C         -0.01200       -0.76620       -1.18830
C         -0.08110       -0.34780       -2.62300
C          0.02550       -2.09700       -0.68900
N         -0.05570       -3.26700       -1.45130
N          0.06960       -2.14110        0.63710
N          0.05100       -0.83260        1.00250
H          1.01960        1.91330        0.21620
H         -0.47080        1.99530       -0.72470
H         -0.54720        1.79730        1.02800
H          0.88050       -0.45900       -3.14270
H         -0.81370       -0.95000       -3.17260
H         -0.37490        0.70160       -2.72240
H          0.56000       -3.25850       -2.25460
H          0.13210       -4.08340       -0.88220
H          0.05830       -0.60130        1.98010
