13
gdb 10003	3.91586	1.20896	0.98811	3.4715	57.57	-0.2671	-0.0691	0.1981	1098.2549	0.092075	-435.770619	-435.762145	-435.7612	-435.805311	27.376
O          0.10160       -0.13660        0.24070
C          0.08450        0.95810       -0.24940
C          1.23900        1.95250       -0.11250
N          1.27760        2.94270       -1.18140
C          0.88510        4.26560       -0.90510
O          0.84090        5.17010       -1.68640
C          1.72860        2.51600       -2.44490
O          1.81380        3.18640       -3.43220
H         -0.78350        1.34020       -0.83300
H          1.10730        2.47590        0.84140
H          2.17880        1.39770       -0.04050
H          0.61530        4.37080        0.16540
H          2.01020        1.44400       -2.41000
