15
gdb 18113	3.79646	2.38843	1.82783	1.9824	60.08	-0.2559	0.0177	0.2736	731.189	0.122398	-399.81744	-399.811578	-399.810634	-399.847495	22.647
C          0.10820        1.50740        0.18130
O          1.48870        1.79510        0.32060
C          2.15940        0.99060       -0.63860
C          1.43750       -0.37180       -0.61080
N          2.00240       -1.27940        0.39940
C          1.12820       -1.37410        1.31140
O         -0.05900       -0.73450        1.18500
C          0.02220       -0.00240       -0.06150
H         -0.40920        1.81960        1.09080
H         -0.32350        2.04240       -0.68150
H          2.08760        1.44040       -1.64240
H          3.20890        0.91150       -0.35140
H          1.43820       -0.85580       -1.59000
H          1.22730       -1.95490        2.22160
H         -0.82900       -0.29800       -0.67650
