15
gdb 5519	3.31889	1.89127	1.26491	1.2954	63.35	-0.2336	0.0008	0.2344	925.7993	0.11931	-399.830803	-399.823102	-399.822158	-399.863266	27.397
C          0.22790        1.48560        0.04040
C          0.09580        0.00150       -0.04030
C         -0.01990       -0.80080       -1.13380
C         -0.04510       -0.57930       -2.61290
O          0.86560        0.42490       -3.03570
O         -0.12020       -2.10020       -0.69070
C         -0.06480       -2.00130        0.65460
N          0.06670       -0.79830        1.10370
H          1.08650        1.76220        0.66100
H          0.35910        1.91260       -0.95530
H         -0.65900        1.93230        0.50330
H          0.13680       -1.54320       -3.11100
H         -1.02920       -0.22830       -2.94420
H          1.73950        0.17770       -2.71380
H         -0.13280       -2.92240        1.21230
