21
gdb 13730	5.80345	0.8227	0.76749	0.7669	76.88	-0.2238	0.0932	0.317	1546.6172	0.186999	-366.218734	-366.209078	-366.208134	-366.253859	33.869
C          0.57840        1.64220       -0.29580
O          0.69840        0.26590       -0.03470
C         -0.20790       -0.51500       -0.78150
C          0.00880       -1.97720       -0.40830
N         -0.91620       -2.80640       -1.16860
C         -0.42650       -3.42550       -2.39860
C         -0.73690       -4.25900       -1.20210
C          0.35200       -4.97800       -0.43570
H          0.77840        1.87770       -1.35370
H         -0.42630        2.02050       -0.04760
H          1.31330        2.16060        0.32530
H         -1.25010       -0.22700       -0.57000
H         -0.04520       -0.37350       -1.86410
H          1.07020       -2.22310       -0.56940
H         -0.19790       -2.10400        0.66030
H         -1.09620       -3.39380       -3.25440
H          0.62800       -3.29540       -2.64420
H         -1.68960       -4.78820       -1.19890
H          1.32110       -4.48070       -0.51850
H          0.10060       -5.05800        0.62780
H          0.46760       -5.99570       -0.82350
