17
gdb 11906	4.82846	1.4562	1.27258	0.7523	70.66	-0.2333	0.0066	0.2399	969.6501	0.143429	-363.840939	-363.83369	-363.832746	-363.872561	28.239
O          0.03010        1.44960        0.06550
C          0.07990        0.02950        0.04620
C         -1.31620       -0.65770        0.06640
C         -1.20880       -1.81750       -0.92780
C         -1.66630       -3.19910       -0.60450
N         -2.37960       -2.39570       -1.61220
C          0.01890       -1.54190       -1.72120
C          0.73190       -0.54800       -1.19180
H         -0.35700        1.73350       -0.77060
H          0.65490       -0.22660        0.94450
H         -1.62350       -0.96890        1.06780
H         -2.05260        0.07260       -0.29170
H         -1.13350       -4.06000       -1.00050
H         -2.12980       -3.36190        0.36560
H         -3.23180       -2.01380       -1.20750
H          0.27190       -2.12530       -2.59900
H          1.68130       -0.17280       -1.55670
