20
gdb 16411	3.4759	2.02161	1.62157	0.1816	80.07	-0.2199	0.0311	0.251	890.9752	0.179637	-311.877087	-311.870119	-311.869175	-311.907722	28.632
C         -0.00050        1.50460        0.04510
C         -0.00290        0.00620       -0.01600
C         -0.01910       -0.70510       -1.14700
C         -0.01980       -2.21630       -1.08940
C         -0.00030       -2.69430        0.37240
C         -1.05630       -1.90820        1.20380
C          0.01420       -0.77790        1.28860
C          1.07970       -1.91040        1.17460
H          0.88580        1.87910        0.57440
H         -0.01400        1.95000       -0.95380
H         -0.87090        1.88090        0.59890
H         -0.03190       -0.22100       -2.12040
H         -0.90380       -2.61790       -1.60600
H          0.84890       -2.61960       -1.62990
H         -0.00050       -3.78530        0.43700
H         -2.01250       -1.66520        0.73280
H         -1.22910       -2.37880        2.17580
H          0.02680       -0.13020        2.16780
H          1.27800       -2.38130        2.14150
H          2.02310       -1.66920        0.67760
