14
gdb 8833	3.0859	1.47558	1.09312	1.4422	59.8	-0.2755	-0.0496	0.2259	1040.7873	0.103281	-419.642276	-419.633396	-419.632452	-419.676596	30.96
O          0.14690        1.33010        0.04340
C          0.02750       -0.05940       -0.03630
C         -1.41460       -0.50730        0.05690
O         -2.30750        0.30030        0.19570
C         -1.76450       -2.00920       -0.00800
O         -3.12790       -2.19770        0.25700
C         -1.35700       -2.54240       -1.31450
C         -1.02500       -2.96990       -2.38720
H         -0.75110        1.67060        0.16740
H          0.44590       -0.44440       -0.97800
H          0.58500       -0.55800        0.77530
H         -1.17510       -2.51470        0.77390
H         -3.52710       -1.31420        0.20960
H         -0.73740       -3.35820       -3.33350
