18
gdb 18875	3.08408	2.42668	2.05242	1.7347	69.31	-0.2494	0.0677	0.3171	762.2454	0.156748	-347.78611	-347.779664	-347.77872	-347.816275	26.6
O          0.24240        1.37670        0.22180
C          0.01220        0.00460       -0.00990
C         -1.39750       -0.57010       -0.00440
C         -2.08780       -0.40920       -1.35260
C         -1.63320        0.67940       -2.32450
C         -0.11960        0.38970       -2.54030
C          0.23760       -0.61540       -1.43650
C         -1.03720       -1.46520       -1.19150
H         -0.44150        1.87790       -0.23170
H          0.63400       -0.52170        0.71980
H         -1.97220       -0.82100        0.88060
H         -3.12960       -0.71210       -1.35550
H         -2.19220        0.61070       -3.26320
H         -1.81720        1.68910       -1.93590
H          0.05100       -0.05320       -3.52670
H          0.49660        1.29120       -2.47280
H          1.18890       -1.12700       -1.58190
H         -1.16680       -2.53140       -1.31300
