20
gdb 7631	4.59988	1.15894	0.97449	2.9631	75.73	-0.239	-0.0158	0.2233	1217.2004	0.174989	-349.025054	-349.016185	-349.015241	-349.058609	33.004
C         -0.20980        1.45980        0.03930
C          0.03590       -0.05390       -0.02300
C          0.73850       -0.44310       -1.33080
C          0.82740       -0.53550        1.19370
C          0.15290       -0.41490        2.59960
C          0.57950       -1.86560        2.86940
O          0.65190       -2.53950        3.85540
C          0.98170       -2.07790        1.40220
H          0.73870        2.00970        0.01620
H         -0.80870        1.79690       -0.81290
H         -0.73860        1.74640        0.95390
H         -0.94240       -0.55860        0.00090
H          1.72120        0.03830       -1.40330
H          0.89160       -1.52470       -1.40140
H          0.15200       -0.13080       -2.20090
H          1.81110       -0.05220        1.20330
H          0.52320        0.33760        3.30010
H         -0.93890       -0.32760        2.54150
H          0.22240       -2.65790        0.86350
H          1.95690       -2.53920        1.22870
