14
gdb 4306	3.80393	1.96754	1.30728	5.6691	67.26	-0.2348	-0.0495	0.1853	886.5891	0.108944	-378.798097	-378.791181	-378.790237	-378.82949	25.489
C         -0.02400        1.49790        0.00560
C          0.00310       -0.00780        0.00400
N         -0.03030       -0.60890       -1.15830
C         -0.00800       -1.99220       -1.23440
O         -0.03570       -2.63550       -2.26020
N          0.05150       -2.67740        0.00770
C          0.08590       -2.05720        1.20750
C          0.06320       -0.69990        1.25650
H          0.87000        1.89710        0.49820
H         -0.07130        1.87000       -1.01750
H         -0.88960        1.86560        0.56840
H          0.06690       -3.68470       -0.06490
H          0.13070       -2.69300        2.08490
H          0.08940       -0.17010        2.19820
