20
gdb 6403	3.13137	1.26187	1.05471	1.9133	72.18	-0.2418	-0.0069	0.2349	1219.6651	0.172936	-386.159167	-386.148868	-386.147924	-386.195643	35.313
C          0.19330        1.29370        0.05290
O          0.07890       -0.11080        0.07230
C         -1.26380       -0.58940        0.07220
C         -1.80150       -0.72430       -1.35350
C         -1.22780       -1.91960        0.81750
C         -0.95960       -1.74710        2.31240
C         -0.34540       -2.93790        3.02230
O         -1.23890       -0.72600        2.89690
H          1.26070        1.52980        0.05990
H         -0.25290        1.74130       -0.84820
H         -0.27740        1.74660        0.93770
H         -1.89390        0.10260        0.64780
H         -1.77270        0.23720       -1.87470
H         -1.20060       -1.43850       -1.92560
H         -2.84090       -1.06880       -1.34860
H         -2.18980       -2.44190        0.71880
H         -0.47190       -2.57620        0.37150
H          0.68720       -3.07000        2.67760
H         -0.34920       -2.77770        4.10110
H         -0.88180       -3.86070        2.77460
