16
gdb 9735	3.97697	1.54013	1.4915	1.5176	66.32	-0.2467	0.0311	0.2778	904.9551	0.12928	-383.701937	-383.693868	-383.692924	-383.734548	29.761
O         -0.19200        1.32020       -0.12980
C         -0.00520       -0.08930        0.00960
C         -1.41050       -0.70790       -0.10840
C         -1.62600       -0.67140       -1.62270
O         -0.34310       -0.91220       -2.20490
C          0.67790       -0.68630       -1.24730
C          0.70820       -0.40660        1.24570
C          1.32530       -0.64110        2.25040
H          0.67240        1.74040       -0.06330
H         -1.39220       -1.73510        0.26410
H         -2.14270       -0.13060        0.45760
H         -2.31660       -1.44330       -1.97660
H         -2.00350        0.30960       -1.93910
H          1.42120        0.01450       -1.64790
H          1.18530       -1.62950       -1.00360
H          1.85950       -0.85150        3.14420
