9
gdb 218	6.4674	6.46702	3.2336	0.0001	43.74	-0.2768	-0.0554	0.2214	384.8085	0.065246	-280.31408	-280.30997	-280.309026	-280.341405	14.209
C          0.01100        1.30310        0.00960
N          1.11950        2.04490        0.00270
C          2.24770        1.33350       -0.01230
N          2.33590        0.00270       -0.02040
C          1.15570       -0.61870       -0.01210
N         -0.04100       -0.02970        0.00290
H         -0.93830        1.83410        0.02190
H          3.18230        1.89020       -0.01850
H          1.17040       -1.70650       -0.01820
