18
gdb 12863	2.84771	2.33168	1.68731	2.4586	66.41	-0.2454	0.0558	0.3012	834.1746	0.154954	-384.932139	-384.924915	-384.92397	-384.963448	28.19
O          0.17230        1.35980       -0.08420
C          0.07630       -0.03970       -0.00080
C          0.18300       -0.73560       -1.36520
O         -0.98710       -1.53400       -1.08330
C         -1.32370       -0.72070        0.07160
C         -1.42290       -1.50270        1.38920
C         -0.21970       -1.00020        2.22220
C          0.85910       -0.67370        1.17000
H          0.13380        1.72570        0.80560
H          0.01770       -0.04220       -2.19920
H          1.06950       -1.34910       -1.56200
H         -2.17810       -0.06720       -0.13880
H         -2.37730       -1.36140        1.90340
H         -1.31990       -2.56830        1.16130
H         -0.49990       -0.08940        2.76830
H          0.11610       -1.72310        2.97040
H          1.34180       -1.59990        0.84010
H          1.64780       -0.00700        1.53150
