9
gdb 107	19.32586	2.84998	2.52198	0.4777	45.22	-0.2633	0.0345	0.2978	470.3666	0.065276	-192.736096	-192.730524	-192.72958	-192.764175	19.399
C         -0.04790       -1.22490       -0.00410
C         -0.00750       -0.02540        0.00200
C          0.02540        1.43800        0.00950
C          1.37950        1.99380       -0.00040
C          2.48460        2.46210       -0.00850
H         -0.07820       -2.28630       -0.00940
H         -0.53040        1.81870       -0.85830
H         -0.51370        1.80930        0.89190
H          3.46440        2.87130       -0.01560
