14
gdb 7935	3.55949	1.93182	1.33626	2.3469	60.06	-0.2731	-0.0059	0.2672	878.0556	0.108452	-415.930104	-415.922965	-415.922021	-415.961698	26.206
C         -0.02510        1.54110       -0.01390
C          0.04470        0.02320        0.02600
O          0.82480       -0.48390       -1.07970
C          1.85240       -1.24730       -0.63420
O          2.65610       -1.79290       -1.33010
N          1.79000       -1.27000        0.75820
C          0.74100       -0.52460        1.26520
N          0.36550       -0.28620        2.45070
H          0.97840        1.97380        0.02550
H         -0.51750        1.87530       -0.93010
H         -0.59210        1.89250        0.85130
H         -0.95770       -0.41100       -0.05300
H          2.47410       -1.77460        1.29770
H          0.95840       -0.73920        3.14660
