19
gdb 11404	3.79686	1.45807	1.14138	1.4525	72.56	-0.2383	0.0331	0.2714	1099.7766	0.165451	-365.10112	-365.092543	-365.091598	-365.13478	30.768
C         -0.14100        1.52660       -0.08070
C         -0.10130       -0.00180       -0.14100
C          0.83640       -0.54740       -1.21200
C          0.83280       -2.09410       -1.35620
N          0.33720       -2.35700       -2.71320
C          0.13660       -1.22260       -3.24890
C         -0.36840       -0.97230       -4.62910
O          0.39960       -0.09850       -2.52380
H          0.84820        1.93890        0.14750
H         -0.46330        1.94260       -1.03910
H         -0.83330        1.87250        0.69260
H          0.22340       -0.41110        0.82460
H         -1.10640       -0.40190       -0.32650
H          1.84630       -0.14740       -1.06450
H          1.82970       -2.53040       -1.23060
H          0.17670       -2.56930       -0.61690
H         -0.54260       -1.92180       -5.13390
H         -1.29910       -0.39740       -4.59400
H          0.35710       -0.38080       -5.19630
