12
gdb 21636	7.21331	1.38614	1.164	5.0757	62.22	-0.2402	-0.0563	0.1839	937.4029	0.085671	-410.856805	-410.850138	-410.849194	-410.887674	24.209
N         -0.08100        1.36450        0.14630
C          0.00750       -0.00600        0.04190
N         -1.04850       -0.79920        0.03070
N         -0.50480       -2.04440       -0.00330
C         -1.33520       -3.17920       -0.02050
O         -0.93950       -4.30740       -0.06070
N          0.83330       -2.08450       -0.02220
C          1.18480       -0.81630        0.00740
H          0.66300        1.87840       -0.30110
H         -0.99460        1.73440       -0.07490
H         -2.38810       -2.85690        0.00740
H          2.22280       -0.51990        0.00750
