12
gdb 3883	3.82442	3.54776	1.85265	0.9445	52.2	-0.1973	0.0168	0.214	634.2118	0.093198	-352.874613	-352.867984	-352.867039	-352.904819	23.877
N         -0.03730        1.41610        0.13370
C          0.01360        0.02440        0.02880
N         -1.05330       -0.76790        0.04870
N         -0.52420       -1.99160       -0.00650
N          0.80740       -2.05850       -0.06070
C          1.17580       -0.78170       -0.03920
N          2.49720       -0.34170       -0.14260
H          0.53810        1.87040       -0.56690
H         -0.98910        1.75520        0.06490
H         -1.09650       -2.81670       -0.00760
H          3.14820       -1.11450       -0.07480
H          2.72080        0.35510        0.55930
