18
gdb 18596	3.48523	2.06155	1.66906	1.3418	66.26	-0.2504	0.0737	0.3242	838.9195	0.15509	-384.932123	-384.924962	-384.924018	-384.963643	27.269
C          0.29300        1.58540        0.10930
C          0.11010        0.07810        0.02160
C          1.05610       -0.73960       -0.91430
C          1.36280       -1.71870        0.25800
O          2.68850       -1.74720        0.74960
C          2.85130       -0.55680        1.48360
O          1.59810       -0.23030        2.05450
C          0.58500       -0.78940        1.23130
H          1.32010        1.84460        0.38200
H          0.06470        2.06160       -0.85020
H         -0.36590        2.02150        0.86740
H         -0.93770       -0.15670       -0.19510
H          0.59220       -1.19050       -1.79430
H          1.94420       -0.18930       -1.23820
H          1.02480       -2.74720        0.12880
H          3.57810       -0.72770        2.28340
H          3.19980        0.26180        0.82980
H         -0.18990       -1.19880        1.88320
