14
gdb 4662	7.25282	1.22962	1.0583	3.6352	67.41	-0.2341	-0.047	0.187	1057.3679	0.106847	-382.589449	-382.582106	-382.581161	-382.621289	26.066
C          0.06520        1.48430        0.00950
C         -0.07740        0.00590        0.01990
C         -1.12330       -0.84430       -0.13740
C         -0.59620       -2.17950       -0.01690
C         -1.31450       -3.45050       -0.10890
O         -0.80190       -4.54250        0.00350
C          0.74440       -2.02540        0.20670
O          1.07180       -0.71970        0.23160
H          0.75150        1.81530       -0.77770
H         -0.90780        1.94750       -0.16670
H          0.45560        1.85620        0.96330
H         -2.15050       -0.56680       -0.31790
H         -2.40670       -3.34800       -0.29630
H          1.54350       -2.73150        0.35860
