22
gdb 6934	4.82608	0.94529	0.88284	1.6692	79.6	-0.2538	0.0917	0.3455	1431.9678	0.197534	-350.207384	-350.197375	-350.196431	-350.242338	36.182
C          0.09360        1.52760        0.23720
C         -0.06510        0.00560        0.23520
C         -1.37480       -0.46090       -0.41800
C         -1.49980       -1.96550       -0.41690
O         -1.77110       -2.60730        0.83900
C         -2.73750       -2.74580       -0.21930
C         -4.07850       -2.09030        0.03270
C         -2.81910       -4.14050       -0.80620
H          1.03340        1.82930        0.71000
H          0.08970        1.92950       -0.78240
H         -0.72370        2.01040        0.78450
H          0.78390       -0.45290       -0.28880
H         -0.03310       -0.37620        1.26240
H         -2.22220       -0.00600        0.10410
H         -1.41500       -0.10780       -1.45810
H         -0.70930       -2.46390       -0.98660
H         -3.97410       -1.12500        0.52950
H         -4.62160       -1.94400       -0.90750
H         -4.69280       -2.73230        0.67380
H         -3.38520       -4.80230       -0.14130
H         -3.32780       -4.12740       -1.77640
H         -1.82140       -4.56530       -0.94090
