17
gdb 18619	3.06051	2.057	1.72467	3.8567	67.91	-0.2364	0.0315	0.2678	836.8466	0.144231	-363.899788	-363.892537	-363.891593	-363.93114	27.708
C         -0.08540        1.56050        0.03830
C          0.05290        0.05650       -0.05630
C          0.70370       -0.67260       -1.20010
C          1.64410        0.10870       -2.11850
N          2.68640        0.57320       -1.22000
C          2.63700        0.07290        0.06050
O          3.48260        0.23170        0.91400
C          1.35040       -0.70450        0.17240
H          0.78930        2.08370       -0.35410
H         -0.96310        1.90060       -0.52260
H         -0.21630        1.86940        1.08030
H         -0.80520       -0.47640        0.34750
H          0.21340       -1.54360       -1.61760
H          2.04960       -0.54710       -2.90050
H          1.13890        0.94650       -2.61710
H          3.47510        1.12350       -1.51920
H          1.35830       -1.56930        0.82270
