16
gdb 2198	4.21069	2.31738	1.65471	3.4935	62.9	-0.24	0.0387	0.2787	784.9313	0.136523	-325.806369	-325.798669	-325.797725	-325.83824	26.697
C         -0.09160        1.59570        0.05860
C          0.02150        0.08070       -0.04220
C          0.83400       -0.51900       -1.23280
N          1.74800       -1.09010       -0.24270
C          2.93790       -1.88890       -0.36530
C          1.09690       -0.58350        0.85500
O          1.32940       -0.65120        2.03510
H          0.88110        2.07550       -0.09330
H         -0.78750        1.99410       -0.68660
H         -0.45350        1.88270        1.05020
H         -0.95580       -0.39490        0.08210
H          0.31020       -1.26470       -1.84210
H          1.30020        0.22450       -1.89090
H          3.71840       -1.36810       -0.93410
H          3.30940       -2.08450        0.64360
H          2.73250       -2.84740       -0.85840
