16
gdb 15257	3.44439	1.31185	1.14627	2.8269	62.7	-0.2478	-0.0259	0.2219	1053.1195	0.128804	-420.855468	-420.846881	-420.845937	-420.889283	30.45
O          0.01510        1.35280       -0.48760
C          0.02240        0.12690        0.22380
C         -1.35050       -0.52270        0.18930
C         -1.81910       -1.18150       -1.05370
O         -0.90500       -1.17580       -2.11160
C         -1.55650       -2.05120        0.18260
C         -0.42450       -3.00510        0.20480
O         -0.44530       -4.04570        0.81980
H         -0.12430        1.12960       -1.41500
H          0.79230       -0.54930       -0.16360
H          0.28920        0.37090        1.25650
H         -2.10480        0.02300        0.74810
H         -2.86180       -1.06910       -1.34650
H         -1.07860       -1.93220       -2.68190
H         -2.42710       -2.41890        0.71570
H          0.45790       -2.72360       -0.40560
