13
gdb 5459	3.53493	1.97462	1.2686	4.3809	69.66	-0.2035	-0.0094	0.1941	880.7399	0.098233	-357.696467	-357.689385	-357.688441	-357.727581	26.569
N          0.01620        1.41210        0.16630
C          0.02690        0.02990        0.05000
C         -1.09330       -0.80310        0.02150
N         -0.63270       -2.11630       -0.01870
C          0.72250       -2.11690       -0.02470
C          1.16940       -0.81130        0.01780
C         -2.45350       -0.46240        0.02010
N         -3.57430       -0.15410        0.01250
H          0.79860        1.87380       -0.27410
H         -0.85930        1.84640       -0.09220
H         -1.22760       -2.92530       -0.04620
H          1.27790       -3.04060       -0.05670
H          2.19980       -0.49190        0.03470
