13
gdb 1878	5.8367	2.25619	1.73848	2.9586	50.43	-0.2728	0.0037	0.2765	698.5175	0.101746	-381.635881	-381.629515	-381.628571	-381.666299	22.667
C          0.07400        1.55400        0.01420
C          0.10020        0.04580       -0.00190
O          0.77730       -0.42680       -1.14780
C          1.41840       -1.62970       -0.77620
C          1.58610       -1.51630        0.73530
O          2.23810       -2.18730        1.47640
O          0.82370       -0.46300        1.13050
H          1.09530        1.94180        0.00840
H         -0.45220        1.91690       -0.87240
H         -0.44580        1.91260        0.90580
H         -0.91540       -0.38000        0.04670
H          0.81750       -2.52090       -1.01500
H          2.38410       -1.71080       -1.27950
