18
gdb 16967	3.2843	2.12811	1.95682	1.125	65.67	-0.2434	0.0698	0.3132	785.0114	0.156682	-384.947579	-384.940947	-384.940003	-384.978156	26.817
O          0.14580        1.39380       -0.17500
C          0.02270       -0.00550       -0.01320
C          0.66260       -0.58350        1.29520
C         -0.51140       -1.36470        1.90820
C         -1.20650       -1.94330        0.66570
C         -1.43690       -0.54100        0.06510
C         -2.13600        0.13110        1.25260
O         -1.46490       -0.40930        2.40740
H         -0.05460        1.81470        0.66710
H          0.50690       -0.42890       -0.89830
H          1.52390       -1.22470        1.08470
H          0.99550        0.21670        1.96280
H         -0.26170       -2.04840        2.72000
H         -0.55590       -2.57870        0.05860
H         -2.12840       -2.48060        0.90120
H         -1.98670       -0.47570       -0.87410
H         -2.04700        1.22430        1.24420
H         -3.20510       -0.11540        1.29570
