18
gdb 15522	2.91969	1.79824	1.14936	3.7971	78.01	-0.2411	-0.0484	0.1927	1039.5274	0.15374	-347.846684	-347.838562	-347.837618	-347.879249	29.615
C         -0.01670        1.50840        0.08950
C          0.04130        0.01810       -0.01470
C          0.03590       -0.76060       -1.11760
C          0.05680       -2.23540       -0.77400
C          0.43520       -2.24330        0.72580
C          0.06780       -0.83080        1.23790
C         -0.02600       -0.30470       -2.50400
O         -0.06710       -1.05450       -3.45870
H          0.86090        1.88720        0.62850
H         -0.06520        2.01040       -0.87800
H         -0.89210        1.81420        0.67660
H         -0.93200       -2.67810       -0.95210
H          0.75620       -2.79550       -1.40060
H         -0.05980       -3.03900        1.28740
H          1.51390       -2.39650        0.83090
H          0.76830       -0.44500        1.98800
H         -0.92470       -0.80810        1.71300
H         -0.03000        0.79620       -2.65510
