12
gdb 726	9.07138	3.47643	2.55327	2.6766	51.32	-0.2317	0.026	0.2577	501.8132	0.09876	-265.44066	-265.435164	-265.43422	-265.469825	19.333
C         -0.02130        1.50490        0.06140
C         -0.00290        0.01640       -0.06550
C         -0.06260       -0.81790       -1.16550
C          0.00010       -2.12580       -0.63800
N          0.09050       -2.12270        0.68760
N          0.08710       -0.81190        1.00850
H          0.90000        1.88750        0.51600
H         -0.11970        1.96260       -0.92490
H         -0.86050        1.85190        0.67520
H         -0.14000       -0.51620       -2.19770
H         -0.01800       -3.06620       -1.16960
H          0.14840       -0.55080        1.97830
