9
gdb 165	9.66859	9.44683	4.77821	2.2277	39.17	-0.2438	0.0239	0.2677	284.6224	0.071284	-226.144377	-226.140644	-226.1397	-226.170637	13.255
N          0.02000        1.35220        0.00970
C          1.28570        1.83710       -0.00030
C          2.11840        0.73820       -0.01460
C          1.24130       -0.36830       -0.01190
N         -0.03490        0.00740        0.00280
H         -0.84010        1.87320        0.02110
H          1.48770        2.89640        0.00360
H          3.19600        0.73580       -0.02530
H          1.48750       -1.42000       -0.02020
