18
gdb 19619	4.51884	1.968	1.80971	0.3536	75.2	-0.2374	0.0989	0.3362	805.2908	0.155408	-310.597321	-310.591091	-310.590147	-310.627233	26.258
C         -0.12330        1.47680       -0.04230
C          1.22420        0.76910        0.00240
C         -0.04680       -0.01680       -0.00680
C         -0.47570       -1.01590        1.04230
C         -1.71870       -1.73610        0.48370
C         -2.01310       -1.13610       -0.89130
C         -0.46850       -1.04980       -1.06340
C         -0.33320       -2.16040        0.06400
H         -0.45170        2.00180        0.84920
H         -0.41010        1.95930       -0.97200
H          1.83360        0.78320       -0.89620
H          1.79610        0.82030        0.92400
H         -0.25370       -1.01440        2.10210
H         -2.39830       -2.25820        1.14570
H         -2.45460       -1.88120       -1.55940
H         -2.57560       -0.19750       -0.95500
H         -0.00670       -1.06260       -2.04910
H          0.19650       -3.09950        0.12550
