15
gdb 7716	3.47311	1.97166	1.30194	1.7732	66.55	-0.2481	-0.0091	0.2391	894.4699	0.121497	-395.995503	-395.9886	-395.987656	-396.026811	26.154
N         -0.13720        1.27480       -0.36710
C         -0.03050        0.06880        0.02260
C         -1.25710       -0.82380        0.05500
O         -1.16860       -1.81980        1.05060
C         -0.05000       -2.65420        0.84150
C          1.25600       -1.88220        0.86070
N          2.32520       -2.45930        1.23690
N          1.14270       -0.56520        0.42320
H          0.76510        1.75570       -0.38620
H         -2.12830       -0.20570        0.27090
H         -1.39130       -1.27790       -0.94200
H         -0.02550       -3.39430        1.64100
H         -0.13320       -3.18580       -0.12220
H          3.14130       -1.84760        1.16160
H          1.98160        0.00000        0.45110
