16
gdb 10973	2.72223	2.52692	1.8312	2.4603	64.28	-0.2437	-0.0104	0.2333	791.6215	0.130439	-383.740538	-383.733439	-383.732495	-383.771628	27.049
C          0.04470        1.53520        0.07030
C         -0.01280        0.04050       -0.01550
C          0.56580       -0.71620       -1.23090
C          0.44130       -2.18150       -0.69200
C         -0.17510       -1.85860        0.68100
O          0.60000       -0.69360        1.11330
C         -1.25700       -0.81290        0.34040
O         -2.42460       -0.64280        0.50440
H          1.07850        1.88950        0.00680
H         -0.51780        1.97530       -0.75870
H         -0.39140        1.88780        1.00820
H         -0.00990       -0.53880       -2.14370
H          1.60290       -0.42280       -1.41120
H         -0.20250       -2.81890       -1.30410
H          1.41210       -2.66860       -0.58090
H         -0.28540       -2.63420        1.43580
