15
gdb 21310	7.43369	1.12701	0.99084	3.522	63.39	-0.2486	0.0028	0.2515	1134.3074	0.119716	-395.964518	-395.956844	-395.9559	-395.997992	26.276
C         -0.04710        1.40280        0.01030
O          0.00970       -0.00430        0.00240
C         -1.26710       -0.60220        0.01090
C         -1.08940       -2.08500        0.00220
C          0.07230       -2.81730       -0.00900
N         -0.36120       -4.10100       -0.01340
N         -1.70330       -4.17240       -0.00370
N         -2.14580       -2.94700        0.00490
H          0.98150        1.77040        0.00270
H         -0.57240        1.79460       -0.87480
H         -0.55590        1.78520        0.90890
H         -1.84030       -0.29380        0.90170
H         -1.85620       -0.28540       -0.86630
H          1.11060       -2.53790       -0.01450
H          0.17730       -4.95230       -0.02200
