12
gdb 354	9.85085	2.21586	1.83111	3.7361	49.61	-0.2388	-0.0681	0.1707	643.2539	0.095538	-302.558547	-302.551612	-302.550668	-302.589229	22.92
C          0.01450        1.44380       -0.00990
N         -0.07060       -0.00130        0.06220
C         -1.28170       -0.63310        0.04280
N         -2.39550       -0.00610        0.08940
C         -1.18450       -2.14280        0.00020
O         -2.15130       -2.85710       -0.00390
H          1.05270        1.75000        0.13280
H         -0.35090        1.83230       -0.96950
H         -0.60400        1.88190        0.77740
H          0.73730       -0.53460       -0.21380
H         -3.14860       -0.69620        0.11380
H         -0.15270       -2.56390       -0.02740
