19
gdb 16435	3.34642	2.26551	1.72458	1.0578	75.85	-0.2074	0.0949	0.3022	842.0177	0.165135	-327.834366	-327.82703	-327.826086	-327.865272	29.25
C          0.05550        1.52110       -0.16340
N          0.04360        0.06780       -0.03090
C         -1.09030       -0.50310        0.75350
C         -0.24890       -1.74270        1.17390
C         -0.63530       -1.59910        2.65770
C         -0.52480       -0.13980        2.17460
C          0.68520       -0.48650        1.21060
C          2.15910       -0.41740        1.47950
H          1.04190        1.84690       -0.51030
H         -0.67500        1.81810       -0.92360
H         -0.17840        2.06890        0.76560
H         -2.12690       -0.47870        0.41200
H         -0.08570       -2.63420        0.56800
H         -1.63420       -1.94630        2.93850
H          0.10130       -1.93240        3.39520
H         -0.68440        0.77360        2.74800
H          2.40730       -0.94320        2.40740
H          2.72020       -0.87960        0.66080
H          2.49650        0.61980        1.58130
