16
gdb 4053	6.40118	1.24717	1.06387	2.6455	75.64	-0.1809	-0.0115	0.1695	1079.8913	0.130557	-379.887533	-379.879621	-379.878677	-379.919671	28.946
C         -0.06560        1.34590       -0.13150
N          0.01770       -0.04490        0.25020
C         -1.16500       -0.90470        0.11200
C         -0.57010       -2.30340        0.00420
C          0.86480       -2.13750       -0.12970
C          1.13020       -0.81560       -0.00340
N         -1.31830       -3.34220        0.05740
O         -0.54190       -4.51710       -0.06520
H          0.89730        1.83140        0.04970
H         -0.32880        1.48420       -1.19340
H         -0.82070        1.85700        0.47440
H         -1.84580       -0.79360        0.96140
H         -1.71860       -0.64090       -0.80170
H          1.57840       -2.93640       -0.23470
H          2.09640       -0.32660       -0.04760
H         -1.21220       -5.20420        0.00100
