12
gdb 8995	5.39899	1.00549	0.85206	2.2631	58.52	-0.2723	-0.1074	0.1649	1208.7124	0.082054	-414.697124	-414.688873	-414.687928	-414.734645	26.816
O         -0.05510       -0.06800        0.02440
C         -0.01780        1.14290        0.01650
N          1.13360        1.86660       -0.01150
C          2.41760        1.22290       -0.02550
C          3.51440        2.25890       -0.01660
O          3.32270        3.44960       -0.00210
C          4.88110        1.71050       -0.02840
N          5.95050        1.27160       -0.03760
H         -0.91650        1.78780        0.03060
H          1.12390        2.87590       -0.00820
H          2.55440        0.55560        0.83860
H          2.55030        0.57890       -0.90800
