9
gdb 783	9.81968	3.89319	2.78789	2.1239	39.16	-0.2453	0.025	0.2703	425.543	0.064546	-317.434422	-317.429848	-317.428904	-317.462134	16.463
O          0.11920        1.30950        0.17010
C          0.07510       -0.01630        0.01260
N          0.11070       -0.69230       -1.11340
C          0.03460       -1.98530       -0.66960
N         -0.04410       -2.13980        0.63610
N         -0.01650       -0.84150        1.07030
H          0.18350        1.69280       -0.71410
H          0.03810       -2.83170       -1.33990
H         -0.06210       -0.62070        2.05030
