12
gdb 555	8.19482	2.68797	2.48393	3.0536	50.2	-0.2526	0.0144	0.267	538.446	0.098381	-265.398572	-265.392993	-265.392048	-265.427692	19.583
N          0.03840       -1.20460       -0.03020
C          0.00900       -0.04880        0.00720
C          0.01550        1.41760        0.04110
C         -0.20270        2.01080        1.46830
C          1.33190        2.21250        1.50770
N          1.36380        2.03490        0.03320
H         -0.64510        1.78600       -0.75080
H         -0.75980        2.94710        1.42710
H         -0.64420        1.34800        2.21070
H          1.70340        3.18430        1.84480
H          1.84120        1.42070        2.07160
H          2.10700        1.44970       -0.33290
