20
gdb 19069	3.4374	2.31463	1.96066	0.1531	76.83	-0.2515	0.0853	0.3368	796.2535	0.181479	-311.855095	-311.848982	-311.848038	-311.88476	26.65
C         -0.00040        1.53090       -0.16740
C          1.30050        0.77730        0.00950
C          2.09790        0.79900        1.31760
C          1.42470       -0.03450        2.42380
C         -0.06680        0.36510        2.58530
C         -0.35410       -0.58970        1.39180
C          0.90350       -1.38990        1.85710
C         -0.02120        0.03920        0.04430
H         -0.34240        2.18670        0.62520
H         -0.22640        1.89920       -1.16280
H          1.90150        0.67880       -0.88880
H          3.09460        0.38320        1.12590
H          2.25560        1.82700        1.67030
H          2.04730       -0.06140        3.32190
H         -0.48950       -0.03990        3.50900
H         -0.34060        1.42020        2.51220
H         -1.32180       -1.09700        1.37420
H          1.49690       -1.89170        1.08690
H          0.67140       -2.09500        2.66010
H         -0.27710       -0.57780       -0.81290
