19
gdb 6719	4.41271	0.89772	0.7997	3.6886	69.1	-0.2487	0.0322	0.2808	1426.7324	0.163952	-402.228349	-402.218602	-402.217658	-402.263866	34.002
C         -0.06830        1.28940       -0.50640
C          0.00060       -0.10450        0.11510
O          0.48670       -0.05060        1.45850
C         -1.33940       -0.84530        0.03960
C         -1.24100       -2.27660        0.58260
N         -2.51540       -2.98310        0.58690
C         -3.04530       -3.53110       -0.53530
O         -2.52690       -3.49910       -1.63290
H          0.89780        1.79350       -0.41710
H         -0.33870        1.23720       -1.56570
H         -0.82440        1.90380       -0.00070
H          0.75760       -0.69370       -0.41840
H         -0.07900        0.55960        1.94510
H         -2.09450       -0.28450        0.60970
H         -1.68520       -0.88540       -0.99850
H         -0.54400       -2.85140       -0.03570
H         -0.84900       -2.26070        1.60180
H         -3.04390       -3.04060        1.44190
H         -4.01710       -4.02750       -0.33770
