18
gdb 17676	4.24589	1.36881	1.32837	1.2603	68.71	-0.2428	0.0811	0.3239	1013.9272	0.152358	-384.904062	-384.895821	-384.894877	-384.936453	31.111
C         -0.05010        1.51420        0.05390
C          0.01880        0.00470        0.04020
C          1.33010       -0.70450       -0.24280
C          0.75240       -0.74400        1.14010
O          1.44430       -0.00910        2.10850
C          0.16300       -2.01130        1.67630
C          0.78340       -2.74000        2.78780
O         -0.36230       -1.90000        3.00850
H          0.82700        1.93480        0.55180
H         -0.09580        1.91710       -0.96350
H         -0.93870        1.86370        0.59120
H         -0.87030       -0.49180       -0.34290
H          1.32830       -1.61010       -0.84060
H          2.21280       -0.08500       -0.36210
H          0.85110        0.03980        2.87090
H         -0.47500       -2.56150        0.98420
H          0.60030       -3.80680        2.90270
H          1.71400       -2.36700        3.20790
