18
gdb 19262	3.22451	1.79305	1.31964	3.0938	72.03	-0.2346	-0.0093	0.2253	973.322	0.153616	-347.800415	-347.7926	-347.791655	-347.832718	29.3
C          0.03490        1.53960        0.11520
C          0.05090        0.03020       -0.15600
C         -1.33520       -0.59470       -0.00840
C         -1.54050       -2.12040       -0.10570
C         -0.87950       -2.81580        1.03030
C         -2.23260       -2.15610        1.28060
C         -2.03520       -0.67260        1.38200
O         -2.40550        0.16620        2.15600
H          1.04100        1.96340        0.04310
H         -0.60080        2.06220       -0.60800
H         -0.35940        1.75230        1.11280
H          0.42420       -0.16530       -1.16970
H          0.75540       -0.45800        0.52750
H         -2.04250       -0.07810       -0.67190
H         -1.86890       -2.64240       -0.99500
H         -0.92140       -3.90020        1.02060
H          0.01820       -2.41610        1.49150
H         -3.08070       -2.72840        1.63470
