15
gdb 19602	4.69042	1.87137	1.61037	4.375	64.2	-0.247	0.0031	0.25	809.6109	0.119207	-362.621432	-362.614945	-362.614	-362.651882	25.153
C         -0.20400        1.43280        0.06160
C          0.07720       -0.06390        0.04820
C          0.93450       -0.51250       -1.14600
C          2.18230       -0.41180       -0.38250
C          1.29910       -0.50630        0.92250
C          1.34930       -1.99540        0.61930
O          1.32710       -3.01240        1.23520
N          1.66710       -1.78810       -0.79620
H          0.71450        2.01140       -0.08360
H         -0.90310        1.70340       -0.73710
H         -0.65100        1.73680        1.01310
H         -0.84460       -0.63100        0.22490
H          0.75320       -0.36280       -2.20310
H          3.19840       -0.11030       -0.58610
H          1.48150       -0.09550        1.91170
