16
gdb 18122	4.45957	1.97034	1.46887	1.8697	66.37	-0.2394	0.003	0.2424	835.4536	0.132638	-383.730092	-383.723647	-383.722703	-383.760811	24.519
C         -0.01090        1.49970        0.09570
O          1.30510        1.96000       -0.24460
C          2.01560        0.88480       -0.82620
C          3.37970        0.49780       -0.23640
O          3.48820       -0.90010       -0.53760
C          2.18230       -1.51090       -0.53080
C          1.24010       -0.35420       -0.46710
C          0.08170       -0.01130        0.07840
H         -0.27720        1.88800        1.08770
H         -0.75080        1.89530       -0.62010
H          2.11170        1.02780       -1.91570
H          4.24100        0.99230       -0.69130
H          3.37890        0.68820        0.84730
H          2.08760       -2.11170       -1.44420
H          2.07440       -2.18390        0.33040
H         -0.67100       -0.65620        0.51390
