12
gdb 11147	6.12677	1.39068	1.1414	2.5729	64.29	-0.258	-0.0701	0.1879	950.015	0.085342	-373.731295	-373.724438	-373.723494	-373.7626	24.631
N         -0.06110        1.29260        0.00740
C          0.00150        0.02850        0.00060
C         -1.17830       -0.94200        0.00240
N         -0.61800       -2.29920       -0.00780
C          0.65160       -2.14070       -0.01420
N          1.11050       -0.82970       -0.01010
C          1.60140       -3.21790       -0.02510
N          2.40190       -4.05090       -0.03400
H          0.86050        1.73150        0.00430
H         -1.80890       -0.80130        0.88660
H         -1.81900       -0.79230       -0.87310
H          2.07700       -0.54840       -0.01430
