13
gdb 2456	6.26752	2.55039	2.12706	3.9101	53.04	-0.2336	0.0508	0.2843	610.7757	0.104649	-340.664551	-340.658986	-340.658041	-340.693637	21.826
O         -0.00270       -0.01340        0.13890
C         -0.02350        1.18300       -0.03390
N         -1.15280        1.99700       -0.11770
C         -0.80440        3.38260       -0.00300
C         -0.01450        3.83750        1.21180
C          0.70280        3.40130       -0.05400
N          1.07710        2.02480       -0.19340
H         -2.00750        1.62670        0.26600
H         -1.40920        4.08800       -0.56050
H         -0.02020        4.90080        1.42650
H          0.02280        3.18640        2.07870
H          1.25070        4.12140       -0.65020
H          1.96440        1.67600        0.13210
