11
gdb 3666	3.72056	3.55931	1.83995	2.9041	49.5	-0.2397	-0.0375	0.2023	632.9049	0.077645	-376.554863	-376.548497	-376.547553	-376.585224	22.22
C          0.10380        1.54550        0.06810
C         -0.03470        0.06900        0.07150
C         -1.07470       -0.78150       -0.15590
O         -2.35020       -0.48630       -0.46760
N         -0.61540       -2.05950       -0.01470
N          0.61920       -2.04580        0.27960
O          1.03180       -0.70490        0.34520
H          0.84030        1.87310       -0.67300
H         -0.85910        1.99970       -0.17390
H          0.42820        1.91580        1.04620
H         -2.82790       -1.31920       -0.56140
