20
gdb 15679	3.33816	1.61687	1.16883	2.6747	74.79	-0.2323	-0.0134	0.2189	1073.9234	0.177505	-349.051218	-349.042914	-349.04197	-349.084234	31.097
C          0.19020        1.63170        0.11670
C          0.01740        0.11080        0.05020
C          0.55390       -0.52540       -1.23950
C          0.69120       -2.05880       -1.22790
C          0.72070       -2.45580       -2.71840
C         -0.30350       -1.51250       -3.36700
C         -0.29310       -0.25100       -2.49420
O         -0.87480        0.77420       -2.74970
H          1.25010        1.90720        0.06590
H         -0.32560        2.11510       -0.71490
H         -0.21050        2.02840        1.05480
H          0.53010       -0.35580        0.90090
H         -1.04440       -0.14650        0.15570
H          1.54470       -0.09460       -1.46110
H          1.57160       -2.40050       -0.67740
H         -0.18810       -2.50080       -0.74050
H          1.71880       -2.26900       -3.13150
H          0.49580       -3.51270       -2.88110
H         -0.11810       -1.26500       -4.41520
H         -1.31770       -1.93010       -3.31520
