15
gdb 17879	3.2328	2.13358	2.07784	2.1237	61.08	-0.2483	-0.0125	0.2358	742.9138	0.121271	-399.778742	-399.772524	-399.77158	-399.808996	24.224
O          0.00090        0.02630       -0.03130
C         -0.01310        1.21390        0.08740
C         -1.08260        2.32620        0.00290
C         -1.21530        3.00310        1.36860
O         -0.00460        2.88190        2.10630
C          1.17960        3.03500        1.33220
C          1.02360        2.35410       -0.02900
N         -0.05130        3.11950       -0.76780
H         -2.03880        2.14620       -0.49110
H         -1.48690        4.05760        1.21280
H         -1.98630        2.51990        1.97590
H          1.41810        4.09620        1.16870
H          1.98110        2.57260        1.91570
H          1.96870        2.19940       -0.55190
H         -0.06190        2.80720       -1.73770
