18
gdb 8549	3.84672	2.2108	1.81982	1.1535	70.48	-0.2418	0.0783	0.3201	783.7106	0.15512	-347.764276	-347.757688	-347.756744	-347.794455	27.251
O          0.03480        1.40950        0.01560
C          0.02190        0.01060        0.00180
C          0.48480       -0.71810       -1.28610
C         -0.69030       -1.72060       -1.13570
C         -0.44850       -2.78830       -0.03990
C         -0.75880       -1.74170        1.05900
C          0.40390       -0.74310        1.30180
C         -1.32990       -0.78060       -0.04810
H          0.95320        1.70180        0.04260
H          0.32000       -0.05970       -2.14440
H          1.50450       -1.11790       -1.32510
H         -1.19280       -2.03630       -2.04980
H         -1.22800       -3.55580       -0.07170
H          0.52800       -3.28510       -0.01420
H         -1.31740       -2.07470        1.93370
H          1.41940       -1.14410        1.39680
H          0.18540       -0.10100        2.16050
H         -2.31920       -0.33200       -0.07470
