13
gdb 21456	6.00177	1.48313	1.18925	2.772	62.94	-0.2197	-0.0034	0.2163	928.6425	0.099249	-390.966483	-390.959784	-390.958839	-390.997704	24.321
N          0.23380        1.26870        0.00430
C          0.04020        0.00900        0.00160
N         -1.20820       -0.55930        0.01270
C         -2.42070        0.11140        0.02740
N         -3.55730       -0.58880        0.03590
N         -4.48530        0.36680        0.04920
N         -4.05290        1.61490        0.04980
C         -2.72460        1.48900        0.03590
H          1.23020        1.47040       -0.00550
H          0.82380       -0.75700       -0.00950
H         -1.27340       -1.56390        0.00900
H         -5.46630        0.14350        0.05820
H         -2.05610        2.32930        0.03250
