22
gdb 6550	2.98803	1.56095	1.37829	1.4006	78.09	-0.2598	0.0652	0.3251	1055.8218	0.197938	-350.200753	-350.191051	-350.190107	-350.234387	37.026
C         -1.82270        0.18810        1.43480
C         -0.68770       -0.00590        0.44740
C          0.09540        1.17010       -0.09030
C          0.79040        0.13420        0.75450
C          1.41300        0.46970        2.11290
C          1.53510       -0.80120        2.96610
C          2.79040        1.10650        1.89360
O          0.65710        1.45940        2.82320
H         -1.70680        1.10610        2.01460
H         -2.77570        0.26540        0.89940
H         -1.91300       -0.65500        2.13090
H         -0.89830       -0.78740       -0.27970
H          0.31650        1.23020       -1.15060
H         -0.08970        2.12570        0.38990
H          1.41410       -0.56700        0.20320
H          2.15010       -1.55590        2.46590
H          1.99290       -0.56890        3.93270
H          0.54970       -1.24730        3.14440
H          2.68610        2.04060        1.33540
H          3.26110        1.32980        2.85530
H          3.44640        0.43710        1.32920
H         -0.06870        1.01230        3.26810
