16
gdb 7321	4.67694	1.03243	0.85905	1.4665	61.97	-0.2418	-0.0835	0.1583	1288.3172	0.126386	-420.90364	-420.894011	-420.893067	-420.939475	31.995
C          0.00750        1.48480        0.00990
C          0.03650       -0.02340        0.00160
O          1.04690       -0.68640       -0.01170
C         -1.34320       -0.72990        0.01130
O         -2.35450       -0.06400        0.02430
C         -1.32310       -2.23770        0.00290
C         -2.71480       -2.85020        0.01290
O         -2.54870       -4.25880        0.00360
H          1.02630        1.87220        0.00140
H         -0.55030        1.85360       -0.85680
H         -0.53200        1.84420        0.89190
H         -0.75400       -2.57790       -0.87120
H         -0.73750       -2.58720        0.86240
H         -3.26270       -2.50910        0.90350
H         -3.27950       -2.49950       -0.86350
H         -3.42120       -4.66300        0.00950
