16
gdb 14369	4.22639	2.14875	1.88435	1.3873	64.11	-0.2446	0.0663	0.3109	742.6508	0.131929	-383.63294	-383.626897	-383.625953	-383.663029	24.332
C         -0.05250        1.59750        0.08770
C          1.43270        1.21900        0.05530
O          1.11430        0.04260        0.94390
C          0.09670        0.06730       -0.13170
C         -0.88470       -0.87460       -0.77000
O         -0.80160       -0.46460       -2.15210
C          0.35820        0.38410       -2.42950
C          1.19970        0.27700       -1.17040
H         -0.43270        1.88150        1.06860
H         -0.45880        2.20820       -0.71980
H          2.31680        1.79250        0.33360
H         -0.58030       -1.92300       -0.64940
H         -1.92270       -0.75680       -0.44510
H          0.85780       -0.02140       -3.31370
H          0.00770        1.39480       -2.66470
H          1.91400       -0.54780       -1.19200
