11
gdb 23852	3.40133	2.37037	1.39689	1.8221	57.7	-0.2514	-0.0629	0.1885	777.7929	0.072605	-438.653996	-438.648013	-438.647069	-438.68425	22.478
F          0.11310        0.09120        0.17630
C          0.03090        1.40520        0.04580
N         -1.15920        1.86850       -0.01320
O         -1.28490        3.24280       -0.15000
C         -0.17440        4.01160       -0.21320
C          1.08360        3.55210       -0.15380
C          1.31300        2.13010       -0.01120
N          2.47200        1.58820        0.05520
H         -0.45510        5.05250       -0.31890
H          1.92630        4.22810       -0.21090
H          2.38450        0.57540        0.15400
