11
gdb 23884	3.60003	1.52185	1.32943	2.6833	41.1	-0.3025	-0.0261	0.2764	891.8767	0.066905	-566.062177	-566.054193	-566.053249	-566.096295	26.053
C         -0.04910        1.34930        0.07290
O          0.03430       -0.08310       -0.04330
C          0.64810       -0.53120       -1.13540
O          1.12900        0.12580       -2.01390
C          0.65710       -2.07950       -1.11810
F          1.27210       -2.54310       -2.19650
F          1.29240       -2.52990       -0.03240
F         -0.59290       -2.55150       -1.09840
H          0.95190        1.78590        0.08920
H         -0.60790        1.76450       -0.76870
H         -0.56810        1.53690        1.01140
