20
gdb 17327	3.29929	2.08779	1.73422	0.3103	77.33	-0.2369	0.0856	0.3225	866.8211	0.178962	-311.856222	-311.849147	-311.848203	-311.886851	29.32
C         -0.00350        1.52780        0.01010
C          0.05000        0.01740        0.00320
C         -0.61030       -0.75860        1.11950
C          0.89480       -0.77860        0.98350
C          1.57990       -1.92710        0.23620
C          1.13360       -1.83220       -1.22750
C         -0.31330       -2.05850       -1.58640
C          0.18940       -0.65280       -1.35890
H          0.84260        1.95890       -0.53840
H         -0.92430        1.89830       -0.45620
H          0.02910        1.91860        1.03200
H         -1.01740       -0.17870        1.94280
H         -1.18300       -1.65340        0.90420
H          1.46680       -0.27250        1.75530
H          2.66580       -1.79230        0.28930
H          1.36450       -2.90730        0.67890
H          1.87540       -2.04340       -1.99050
H         -0.52370       -2.34330       -2.61260
H         -0.98120       -2.51920       -0.86790
H          0.23730        0.01190       -2.21480
