16
gdb 11877	4.78729	1.54744	1.34127	4.3927	64.52	-0.2623	0.0152	0.2774	921.8894	0.131634	-383.774169	-383.7673	-383.766355	-383.805411	26.256
O         -0.19170        0.07070        0.62780
C         -0.14540        1.23280        0.35230
C         -1.20940        2.09400       -0.32640
C         -0.73550        3.50570       -0.04830
C         -1.32910        4.74170       -0.65400
C         -1.53000        4.45060        0.81610
C          0.76560        3.34680        0.14880
O          0.95010        2.00070        0.61690
H         -1.20570        1.85260       -1.39710
H         -2.19860        1.85070        0.06480
H         -0.65780        5.55050       -0.92590
H         -2.17660        4.62750       -1.32170
H         -2.51440        4.13390        1.14460
H         -0.99440        5.06200        1.53520
H          1.32240        3.46680       -0.78960
H          1.18460        4.02670        0.89510
