14
gdb 4870	4.96041	1.38517	1.14874	2.4334	60.95	-0.2099	0.0174	0.2274	997.5846	0.108389	-415.88652	-415.878966	-415.878022	-415.918658	27.352
N          0.19120        1.26180       -0.03310
C         -0.01280       -0.09360        0.00390
N         -1.12810       -0.72650        0.20250
C         -0.74110       -2.06480        0.21660
C          0.59090       -2.17600        0.02560
C          1.57620       -3.27950       -0.08190
O          2.10160       -3.46130       -1.39470
O          1.08190       -0.87670       -0.11350
H          0.97130        1.56180       -0.59870
H         -0.65700        1.78150       -0.20310
H         -1.45940       -2.85650        0.36310
H          2.39170       -3.12940        0.64300
H          1.07350       -4.21480        0.17850
H          2.53100       -2.63740       -1.64690
