13
gdb 10447	2.89297	1.73718	1.27785	6.2562	62.57	-0.2952	-0.0068	0.2884	930.5842	0.095674	-357.633729	-357.626136	-357.625192	-357.66628	26.657
N         -0.18040       -1.05170        0.53780
C         -0.07390        0.03220        0.15400
C          0.05210        1.41560       -0.30890
C          1.45790        1.98560       -0.11090
C          1.59250        3.40710        0.33660
N          1.93470        2.31110        1.24170
C          2.46090        1.42730       -0.99690
N          3.23410        0.99580       -1.73900
H         -0.22540        1.46410       -1.36740
H         -0.66740        2.03310        0.23990
H          2.43580        3.99490       -0.01060
H          0.67090        3.96370        0.48740
H          1.19830        2.13670        1.92210
