22
gdb 13140	3.91651	1.18683	1.00779	0.901	79.15	-0.2413	0.0845	0.3258	1265.8097	0.199222	-350.196533	-350.187168	-350.186224	-350.23091	34.059
C         -0.36800        1.36900       -0.19780
C          0.23650       -0.02450       -0.15730
O          0.19580       -0.49400        1.17660
C          0.71410       -1.78580        1.33870
C          2.25360       -2.00220        1.28580
C          2.10650       -2.93580        2.51980
C          0.70080       -2.31940        2.79670
C          0.69580       -1.23130        3.86760
H          0.19730        2.05060        0.44420
H         -0.35510        1.76230       -1.21880
H         -1.40330        1.34820        0.15440
H         -0.32440       -0.71010       -0.81550
H          1.27490       -0.00430       -0.52580
H          0.20360       -2.48630        0.65760
H          2.68390       -2.42330        0.37420
H          2.78190       -1.07700        1.53280
H          2.05360       -3.99080        2.23840
H          2.84890       -2.82690        3.31440
H         -0.09430       -3.04130        3.00640
H          1.49520       -0.50120        3.70760
H         -0.25070       -0.68380        3.86690
H          0.83800       -1.67530        4.85880
