19
gdb 16840	3.32754	1.9646	1.51643	2.6018	71.47	-0.2367	0.0755	0.3121	912.6824	0.166197	-365.05168	-365.043987	-365.043042	-365.083317	29.808
C          0.18820        1.55940       -0.08900
C          0.05200        0.05010        0.03990
O          0.66310       -0.55890       -1.09970
C          1.21150       -1.83500       -0.76200
C          2.42900       -2.08370       -1.63890
C          1.47870       -1.75790        0.73290
N          2.22470       -0.53670        1.10600
C          0.75210       -0.57660        1.23550
H          1.24420        1.83770       -0.05590
H         -0.23750        1.89870       -1.03720
H         -0.34140        2.06440        0.72560
H         -1.01520       -0.22930        0.08960
H          0.45840       -2.62500       -0.92970
H          3.20320       -1.34730       -1.41090
H          2.82820       -3.08870       -1.46660
H          2.15940       -1.99810       -2.69500
H          1.59960       -2.66800        1.31100
H          2.64120       -0.67120        2.02420
H          0.29030       -0.53950        2.21660
