20
gdb 5845	3.13954	1.50059	1.32093	1.7153	71.53	-0.2624	0.0183	0.2807	1061.968	0.17386	-386.188291	-386.178203	-386.177259	-386.223234	35.712
C          0.04670        1.35410        0.00890
O         -0.03040       -0.07540        0.00170
C         -1.28090       -0.58930        0.01090
O         -2.26970        0.10060        0.02440
C         -1.25690       -2.12040        0.00250
C         -2.70260       -2.63620        0.01360
C         -0.52700       -2.60240       -1.26980
C         -0.50310       -2.61570        1.25570
H          1.11000        1.59500        0.00040
H         -0.44750        1.77240       -0.87190
H         -0.43130        1.76260        0.90300
H         -3.25440       -2.28240       -0.86090
H         -2.70630       -3.73080        0.00790
H         -3.23770       -2.29160        0.90190
H          0.50100       -2.23460       -1.30180
H         -0.50380       -3.69690       -1.29070
H         -1.04180       -2.26140       -2.17410
H         -1.00060       -2.28440        2.17320
H         -0.47950       -3.71040        1.26460
H          0.52540       -2.24810        1.27210
