12
gdb 122	23.89209	2.25168	2.1394	4.0641	46.62	-0.3185	0.0365	0.355	569.5065	0.102603	-211.295163	-211.289209	-211.288265	-211.324151	19.863
C         -0.00380        1.54870        0.01030
C          0.00470        0.01940        0.00220
C         -1.42420       -0.56160        0.01270
C         -1.44080       -2.02260        0.00480
N         -1.43400       -3.17820       -0.00140
H          1.01580        1.94370        0.00270
H         -0.52340        1.94880       -0.86720
H         -0.50650        1.93940        0.90180
H          0.53210       -0.35290       -0.88240
H          0.54890       -0.36220        0.87260
H         -1.96780       -0.21270        0.89880
H         -1.98470       -0.20320       -0.85900
