20
gdb 6888	3.16222	1.44817	1.34874	2.5009	71.42	-0.2421	0.0578	0.3	1042.3391	0.175698	-386.123265	-386.114084	-386.11314	-386.156322	34.727
C          0.03170        1.54940       -0.16860
C         -0.00380        0.04530        0.01580
C         -1.20340       -0.63700       -0.61430
C          1.30220       -0.71230        0.01030
O          2.49770       -0.00280       -0.10830
C          0.52430       -0.58800        1.30710
C          1.15350        0.20680        2.43150
O          2.49320       -0.23200        2.72460
H          1.01310        1.96100        0.07150
H         -0.17320        1.79840       -1.21600
H         -0.72740        2.05080        0.44300
H         -1.25330       -0.42310       -1.68830
H         -1.15990       -1.72430       -0.49300
H         -2.13990       -0.29020       -0.16130
H          1.31030       -1.68500       -0.48360
H          2.95550       -0.09250        0.74060
H         -0.00320       -1.48190        1.63400
H          1.25900        1.26180        2.17490
H          0.53310        0.15240        3.33620
H          2.44740       -1.16460        2.96100
