18
gdb 19068	3.49947	2.42294	2.03288	1.7876	69.54	-0.2602	0.0866	0.3468	748.0927	0.157352	-347.784954	-347.779091	-347.778147	-347.814474	25.019
C         -0.04560        1.53320       -0.03100
C          1.51010        1.49890       -0.00230
C          1.38150        0.12810        0.72910
C          0.01530       -0.01820       -0.01060
C          0.31190       -0.54390       -1.41110
O          0.01960        0.31570       -2.51820
C          1.39280        0.14290       -2.13420
C          2.07700        1.30150       -1.41970
H         -0.45450        1.92030        0.90570
H         -0.53730        2.00550       -0.88160
H          2.03290        2.30660        0.51580
H          2.14770       -0.63230        0.54590
H          1.24830        0.25790        1.80600
H         -0.79440       -0.56820        0.47320
H          0.11800       -1.59980       -1.59590
H          1.98460       -0.39830       -2.87140
H          1.97440        2.21940       -2.01180
H          3.15020        1.08030       -1.35810
