17
gdb 2268	3.73448	2.69226	2.09274	1.7765	63.93	-0.2273	0.0827	0.3101	713.9123	0.147355	-309.684472	-309.677318	-309.676374	-309.715074	27.155
C         -0.07370        1.54310       -0.02600
C          0.10160        0.04020        0.03760
O          1.16660       -0.46530       -0.82450
C          1.71110       -1.20730        0.26890
C          2.19570       -0.28130        1.34130
C          0.72200       -0.64620        1.26390
C         -0.05380       -1.26330        2.38990
H          0.82950        2.06790        0.29560
H         -0.30310        1.85370       -1.05040
H         -0.90550        1.85320        0.61600
H         -0.83670       -0.46270       -0.23710
H          2.07720       -2.20920        0.07400
H          2.72120       -0.75330        2.16670
H          2.56220        0.70480        1.07020
H         -0.43760       -0.49970        3.07760
H         -0.91010       -1.83710        2.01730
H          0.57300       -1.94300        2.97590
