16
gdb 4922	6.64378	1.27241	1.08656	1.058	68.48	-0.1913	0.0198	0.2111	1088.2019	0.130853	-379.957566	-379.949439	-379.948495	-379.990362	28.857
C          0.10340        1.40360       -0.09450
N         -0.01880       -0.03680        0.01040
C          0.60330       -0.66630        1.06890
C          1.07040       -0.17320        2.24860
O          1.54700       -1.24860        2.97820
C          1.35080       -2.31920        2.18490
C          1.77810       -3.64970        2.69150
N          0.79760       -2.04190        1.04300
H          1.14780        1.75500       -0.11370
H         -0.39900        1.74370       -1.00250
H         -0.39430        1.87950        0.75830
H          0.10000       -0.54500       -0.85380
H          1.13550        0.79340        2.71170
H          2.85280       -3.66560        2.90050
H          1.25880       -3.90110        3.62210
H          1.54960       -4.40620        1.94070
