10
gdb 4633	6.90787	1.41348	1.17338	4.4622	58.83	-0.246	-0.0445	0.2015	907.5439	0.059703	-417.288087	-417.281752	-417.280807	-417.31871	23.135
O          0.05130        0.01330        0.00250
C          0.00070        1.19750        0.00960
O         -1.15140        1.95290        0.02970
C         -0.77860        3.27060        0.03160
C          0.55780        3.35530        0.01330
O          1.06270        2.05530       -0.00070
C          1.44380        4.44010        0.00680
C          2.20740        5.37020        0.00110
H         -1.55500        4.01430        0.04640
H          2.88100        6.19190       -0.00390
