16
gdb 14235	4.79	1.71875	1.51815	0.9097	63.73	-0.242	0.0751	0.317	840.7025	0.130532	-383.675487	-383.668674	-383.66773	-383.705922	27.579
O          0.17180        1.29620        0.16600
C          0.08120       -0.09950       -0.01440
C         -1.34480       -0.63410       -0.11850
C         -1.32160       -0.52230       -1.64320
C          0.25660       -0.58140       -1.48530
C          0.15760       -2.13110       -1.40050
C         -1.30090       -1.88430       -1.01890
O         -2.34070       -2.78880       -1.04950
H         -0.49330        1.70350       -0.40220
H          0.75580       -0.53560        0.73050
H         -2.18450       -0.46740        0.54570
H         -1.99800       -0.07160       -2.35400
H          0.98480       -0.09480       -2.13050
H          0.22840       -2.60310       -2.38450
H          0.82050       -2.64240       -0.69150
H         -2.34380       -3.27920       -0.21990
