16
gdb 20038	4.09725	1.36259	1.19867	2.6655	61.05	-0.2627	0.0671	0.3298	1017.4907	0.129323	-420.817266	-420.80928	-420.808336	-420.850343	28.421
O          0.06680        1.11510       -0.75150
C          0.12870       -0.07170        0.02800
C         -1.26030       -0.58980        0.30930
O         -1.89190       -1.33580       -0.75200
C         -1.63310       -2.00680        0.47540
C         -0.69990       -3.18030        0.45380
C         -0.57620       -4.02530       -0.74340
O          0.46610       -3.12470       -0.35900
H         -0.30350        0.86960       -1.60620
H          0.72940       -0.85030       -0.45050
H          0.61050        0.21050        0.97090
H         -1.92240        0.15240        0.75980
H         -2.52590       -2.21070        1.07360
H         -0.54910       -3.64060        1.43190
H         -0.34080       -5.08270       -0.63960
H         -1.12190       -3.73760       -1.63890
