12
gdb 410	6.6913	3.03598	2.50133	2.375	48.35	-0.2519	-0.0315	0.2204	528.8623	0.094927	-306.364186	-306.358187	-306.357242	-306.393465	21.796
O         -0.03900        1.38330       -0.01200
C         -0.03130       -0.00160       -0.00720
C         -0.44190       -0.72480        1.26660
C         -1.36150       -0.73390        0.08170
C          1.03630       -0.59860       -0.83070
O          1.82370        0.08590       -1.44630
H          0.70200        1.63210       -0.58770
H          0.07530       -1.63860        1.53920
H         -0.68320       -0.06500        2.09160
H         -2.22560       -0.08030        0.10450
H         -1.49040       -1.65410       -0.47810
H          1.07490       -1.70710       -0.85230
