14
gdb 3720	7.27666	1.94758	1.64976	3.0213	58.19	-0.2552	0.0145	0.2698	752.8529	0.116214	-320.793141	-320.786681	-320.785737	-320.82436	22.751
C          0.08930        1.56860        0.10890
C          0.01950        0.04120       -0.03390
C          0.68800       -0.44810       -1.27940
N          0.47780       -0.01650       -2.51330
C          1.32010       -0.78360       -3.25850
N          2.03970       -1.66010       -2.57880
N          1.61910       -1.42710       -1.31050
H          1.12520        1.90820        0.20110
H         -0.34480        2.04910       -0.77060
H         -0.45990        1.89670        0.99580
H          0.47340       -0.44740        0.83600
H         -1.03060       -0.27480       -0.05510
H          1.40600       -0.69300       -4.33110
H          2.00450       -1.96270       -0.54980
