20
gdb 5955	2.73862	1.41247	1.19379	4.2485	72.26	-0.2671	0.0121	0.2791	1123.5262	0.17357	-386.177898	-386.16802	-386.167076	-386.2123	35.414
C          0.09010        1.55680        0.08430
C          0.04530        0.03280       -0.05520
C          0.67050       -0.53470       -1.34290
C          0.60440       -2.06620       -1.31570
C          0.00810        0.03820       -2.60190
O          2.06900       -0.10240       -1.25960
C          2.93930       -0.40360       -2.23260
O          4.08840       -0.06890       -2.19050
H          1.11410        1.92540       -0.01490
H         -0.52840        2.05720       -0.66700
H         -0.28480        1.85650        1.06730
H          0.57240       -0.42350        0.79030
H         -0.99170       -0.32010       -0.00550
H         -0.43790       -2.39410       -1.25700
H          1.04020       -2.51160       -2.21430
H          1.13720       -2.45540       -0.44370
H          0.18490        1.11300       -2.68310
H          0.37840       -0.43990       -3.51280
H         -1.07250       -0.13020       -2.55930
H          2.50500       -0.98190       -3.06680
