13
gdb 7045	5.76925	0.90537	0.7864	2.168	69.66	-0.2777	-0.0563	0.2213	1385.7074	0.092989	-398.601974	-398.593132	-398.592188	-398.639645	28.332
C          0.10010        1.42060        0.01580
C          0.06580       -0.03010       -0.00630
C          0.03990       -1.23450       -0.02330
C         -0.06310       -2.66510       -0.04650
O         -1.08960       -3.29090       -0.09270
O          1.18930       -3.22860       -0.00810
C          1.27410       -4.60030       -0.02380
N          2.42080       -5.11500        0.01130
H          1.12080        1.79570       -0.10850
H         -0.51970        1.83600       -0.78570
H         -0.28850        1.79890        0.96740
H          0.30030       -5.08760       -0.06630
H          2.34180       -6.13090       -0.00560
