15
gdb 2976	4.36561	1.96172	1.44958	4.6186	61.24	-0.2606	0.0246	0.2852	826.9051	0.125753	-304.688358	-304.680956	-304.680012	-304.719921	26.658
N          0.11370        1.35830        0.17880
C         -0.06390       -0.08490       -0.02110
C         -1.50070       -0.40170        0.06680
N         -2.62610       -0.65990        0.10060
C          0.51840       -0.65410       -1.31040
C          1.98860       -0.98710       -1.36200
C          0.96090       -2.09150       -1.37710
H          1.10290        1.57330        0.08670
H         -0.36170        1.86590       -0.56280
H          0.42320       -0.59080        0.82390
H          0.07540       -0.23530       -2.20990
H          2.53160       -0.77030       -2.27480
H          2.57360       -0.85460       -0.45670
H          0.85440       -2.69650       -0.48260
H          0.79490       -2.63440       -2.30000
