21
gdb 5843	3.09803	1.43581	1.26212	3.3107	75.92	-0.2377	0.039	0.2767	1109.3793	0.186424	-366.309192	-366.298939	-366.297994	-366.34438	36.966
C         -0.09690        1.50520        0.23070
N         -0.18650        0.06510        0.37640
C         -1.05930       -0.68880       -0.35110
O         -1.81940       -0.19690       -1.17060
C         -1.05840       -2.21630       -0.10310
C         -2.48800       -2.59490        0.33650
C         -0.74260       -2.88530       -1.45700
C         -0.04960       -2.69110        0.95550
H         -0.33030        2.01660        1.17150
H          0.90390        1.81170       -0.09390
H         -0.82420        1.79990       -0.52620
H          0.41820       -0.38770        1.03820
H         -3.21470       -2.22550       -0.38970
H         -2.58610       -3.68270        0.41620
H         -2.73120       -2.16150        1.31290
H          0.28000       -2.66280       -1.78110
H         -0.84200       -3.97290       -1.37640
H         -1.42890       -2.52230       -2.22460
H         -0.25100       -2.25610        1.94130
H         -0.11490       -3.77810        1.06780
H          0.98410       -2.46140        0.67240
