15
gdb 16582	2.60817	2.26923	1.85128	2.7227	60.95	-0.2399	-0.0173	0.2227	796.9507	0.117911	-399.771663	-399.764063	-399.763119	-399.803336	27.963
C         -0.00000        1.54280        0.06620
C          0.04100        0.04610       -0.13890
C          0.67320       -0.66900       -1.26070
C          1.95660       -0.02810       -1.76730
O          1.83400        1.16500       -2.49740
C          2.38810       -0.00550       -0.28050
O          3.32610        0.40660        0.32820
N          1.25540       -0.78560        0.17500
H          0.81460        2.05800       -0.44330
H         -0.94260        1.93370       -0.33060
H          0.04060        1.77730        1.13450
H         -0.83400       -0.46670        0.25550
H          0.21720       -1.53890       -1.71810
H          2.56540       -0.77590       -2.29830
H          2.72130        1.50320       -2.66320
