15
gdb 11483	3.36128	1.47076	1.09938	3.6637	66.34	-0.2856	-0.0852	0.2004	1044.9028	0.117899	-362.668231	-362.660148	-362.659204	-362.701952	28.177
O         -0.63720        0.21150        1.19920
C         -0.00140        1.02540        0.57960
C          1.41130        1.46050        0.90380
C          2.39940        0.97830       -0.14740
C          2.64980        1.77540       -1.40560
C          3.70850        1.70410       -0.33680
C         -0.60180        1.66830       -0.61510
N         -1.08170        2.18850       -1.52970
H          1.43780        2.55620        0.95610
H          1.65200        1.05700        1.89160
H          2.43380       -0.10270       -0.24910
H          2.80680        1.23050       -2.32910
H          2.11510        2.71010       -1.53200
H          3.88630        2.59040        0.26330
H          4.59520        1.10880       -0.52230
