14
gdb 10999	4.27004	1.81247	1.5251	4.1794	63.39	-0.2408	-0.0559	0.1849	818.9935	0.107248	-382.548032	-382.541356	-382.540411	-382.578574	26.042
O         -0.06840        1.42460        0.05000
C         -0.02670        0.03460        0.04860
C         -0.38870       -0.75310       -1.19190
C         -1.28850       -0.77380        0.04550
C         -1.06430       -1.92200        1.01000
O         -1.86780       -2.76620        1.32750
C          0.34290       -1.78940        1.49710
C          0.90130       -0.68390        0.98850
H          0.64120        1.75020       -0.51450
H         -0.77450       -0.18400       -2.03220
H          0.18530       -1.63710       -1.44840
H         -2.26720       -0.31920       -0.02760
H          0.80030       -2.51670        2.15470
H          1.90970       -0.32970        1.17440
