11
gdb 3767	7.89348	2.24216	1.76569	1.5153	48.72	-0.2587	-0.0235	0.2352	659.5525	0.080042	-372.742383	-372.736405	-372.735461	-372.772261	20.874
C         -0.05250        1.39950        0.02730
N          0.00100       -0.04720        0.05060
N         -0.05080       -0.77940       -1.04540
N          0.02310       -2.03280       -0.65320
C          0.11740       -1.98400        0.69350
O          0.21230       -3.06260        1.47160
N          0.10720       -0.75120        1.18150
H          0.86010        1.81040        0.46470
H         -0.14210        1.70220       -1.01520
H         -0.91600        1.74650        0.59900
H          0.19890       -3.83300        0.88950
