15
gdb 21638	6.42444	1.63147	1.33091	2.4251	69.68	-0.193	0.0365	0.2295	893.9267	0.121952	-358.826357	-358.819618	-358.818673	-358.857331	25.548
N          0.02050        1.36560        0.33680
C          0.04970        0.00800        0.01910
N         -1.09120       -0.69950       -0.00590
N         -0.62260       -1.95780       -0.17210
C         -0.95510       -3.27940       -0.72090
C          0.60930       -3.49700       -0.81050
C          0.70470       -2.05010       -0.34340
C          1.22480       -0.77920       -0.21760
H          0.69570        1.91220       -0.18020
H         -0.90920        1.75130        0.23090
H         -1.51440       -3.92620       -0.03940
H         -1.45340       -3.24050       -1.69400
H          1.01090       -4.25370       -0.13270
H          0.97450       -3.68810       -1.82200
H          2.24540       -0.43670       -0.25130
