20
gdb 12968	2.24007	2.17287	1.75713	1.4761	74.84	-0.236	0.0724	0.3083	919.8137	0.176349	-348.979661	-348.971165	-348.970221	-349.011783	32.801
C         -0.15460        1.51890       -0.11490
C          0.12280        0.01860       -0.07660
C          1.28850       -0.58110       -0.92910
C          1.83280       -1.28130        0.32130
C          2.17790       -0.27890        1.36500
O          2.77660        0.93550        0.99450
C          0.72180       -0.62250        1.19230
C         -0.11260       -1.18760        2.30880
H          0.76260        2.09230        0.03560
H         -0.58010        1.81070       -1.08180
H         -0.87530        1.80790        0.65930
H         -0.80060       -0.51990       -0.32030
H          0.94150       -1.27230       -1.69970
H          1.96980        0.14450       -1.38090
H          2.22330       -2.29270        0.35180
H          2.60920       -0.71990        2.26620
H          2.52800        1.59840        1.64700
H         -0.62170       -0.39270        2.86910
H         -0.88620       -1.86440        1.92670
H          0.49820       -1.75140        3.02200
