20
gdb 6586	3.71605	1.89498	1.59852	1.4744	74.64	-0.2375	0.0891	0.3266	905.5283	0.177082	-349.009156	-349.001431	-349.000486	-349.040363	31.067
C         -0.13640        1.48920       -0.00580
C          0.03330       -0.00360       -0.01980
C          0.77800       -0.78400       -1.12970
C         -0.23710       -1.85130       -0.65470
C         -0.78510       -2.94340       -1.52900
C          0.26180       -2.19320        0.77120
C          0.47540       -0.73360        1.27280
O         -1.17640       -0.75800       -0.37270
H          0.81650        1.97940        0.21990
H         -0.49290        1.85210       -0.97380
H         -0.86030        1.78530        0.76080
H          0.53440       -0.40650       -2.12440
H          1.84970       -0.97690       -1.02450
H         -0.01390       -3.69450       -1.73000
H         -1.62550       -3.44360       -1.03600
H         -1.13610       -2.54200       -2.48370
H         -0.50520       -2.72840        1.33650
H          1.17530       -2.79490        0.76860
H          1.50940       -0.51230        1.55290
H         -0.17510       -0.47340        2.11130
