11
gdb 2619	13.06288	0.95567	0.89539	3.2314	62.92	-0.2698	-0.0651	0.2048	1169.9158	0.075275	-306.054267	-306.046561	-306.045617	-306.087304	25.159
O         -0.06400       -0.09780        0.00210
C         -0.01350        1.11040        0.00740
C          1.20790        1.87540        0.00020
C          2.20990        2.54730       -0.00550
C          3.44080        3.33470       -0.01270
C          3.22030        4.78090       -0.00290
C          3.05120        5.96880        0.00500
H         -0.93340        1.72920        0.01820
H          4.05080        3.04500        0.85440
H          4.03460        3.05440       -0.89410
H          2.89850        7.01990        0.01180
