16
gdb 7047	3.08647	0.94689	0.75448	2.1773	78.33	-0.2445	0.0199	0.2644	1516.462	0.126764	-346.546138	-346.535816	-346.534872	-346.584043	33.6
C         -0.13540        1.50560       -0.00090
C         -0.01660        0.05530       -0.00120
C          0.08680       -1.14400        0.00200
C          0.17610       -2.61170        0.00690
O         -1.09000       -3.22560        0.25170
C          0.80100       -3.10750       -1.22830
C          1.28660       -3.52790       -2.24630
C          1.88060       -4.03670       -3.47350
H          0.57510        1.96050        0.69790
H          0.06070        1.92250       -0.99470
H         -1.14120        1.81890        0.29960
H          0.79000       -2.92410        0.86190
H         -1.66700       -2.97760       -0.47990
H          1.30710       -4.88270       -3.86810
H          1.91450       -3.26540       -4.25060
H          2.90560       -4.38330       -3.30250
