17
gdb 13684	5.86747	0.92319	0.87353	2.7984	67.13	-0.2532	0.0291	0.2823	1316.6834	0.141167	-401.00645	-400.997713	-400.996768	-401.041141	30.237
C          0.13120        1.34320       -0.49550
C         -0.14710        0.07590        0.27180
O          0.89370       -0.90760        0.33700
C          0.45680       -0.29690        1.56190
C          1.48970        0.51850        2.30170
N          2.51150       -0.34780        2.86750
C          2.79730       -0.39200        4.19600
O          2.27230        0.29250        5.04880
H          1.12740        1.73960       -0.29130
H          0.06080        1.14990       -1.57090
H         -0.60990        2.10970       -0.24500
H         -1.13000       -0.35580        0.07020
H         -0.11040       -0.97210        2.20560
H          1.95000        1.25750        1.63880
H          1.03240        1.04810        3.14160
H          2.98670       -0.98250        2.24480
H          3.58520       -1.13800        4.41960
