12
gdb 9985	2.65112	1.66407	1.12204	2.9377	57.17	-0.2877	-0.0613	0.2265	986.9864	0.082818	-414.70708	-414.699216	-414.698272	-414.740646	26.024
O         -0.09820        0.01570        0.10250
C          0.01400        1.21090        0.16070
N          1.22370        1.89850        0.02230
C          1.26170        3.35820        0.08030
C          0.95500        3.88250        1.41530
N          0.69230        4.29570        2.46110
C          2.42390        1.20670       -0.18590
O          3.48400        1.75950       -0.33170
H         -0.83320        1.90030        0.32940
H          2.27570        3.65050       -0.20600
H          0.56320        3.78980       -0.64390
H          2.26650        0.12100       -0.20240
