14
gdb 7699	3.88552	1.86029	1.26096	6.9905	68.16	-0.2073	-0.0043	0.203	896.7107	0.110101	-378.780318	-378.773503	-378.772559	-378.811015	26.525
N         -0.14760        0.95880       -0.69710
H          0.07340        0.02700       -0.36520
H          0.69940        1.50350       -0.78510
C         -1.11990        1.61350        0.06250
C         -1.03470        2.89030        0.52440
H         -0.12210        3.45700        0.38030
C         -2.13170        3.53780        1.23640
O         -2.07970        4.69020        1.65730
C         -3.30640        2.67190        1.42630
C         -3.33400        1.41110        0.95210
N         -2.25680        0.87250        0.28430
H         -4.15550        3.07740        1.96190
H         -4.18150        0.74520        1.06370
H         -2.36150       -0.00090       -0.20550
