20
gdb 16699	3.50439	1.81574	1.59236	1.5712	74.47	-0.2313	0.097	0.3283	921.5576	0.178091	-348.989284	-348.981778	-348.980834	-349.020517	29.941
C         -0.12580        1.58710       -0.02070
C          0.01110        0.06980       -0.02000
C          1.14370       -0.59560       -0.85190
C          2.11990       -0.25440        0.29840
C          0.84470       -0.59210        1.13690
C          0.70600       -2.08380        0.77810
C         -0.59490       -2.78760        1.12910
O          0.89030       -1.99870       -0.66410
H          0.81680        2.11040        0.15910
H         -0.51880        1.93640       -0.98190
H         -0.83040        1.90650        0.75520
H         -0.96850       -0.38000       -0.20520
H          1.33270       -0.39350       -1.90600
H          2.99150       -0.90400        0.41130
H          2.41710        0.79190        0.34540
H          0.73210       -0.31150        2.18460
H          1.54220       -2.65880        1.20080
H         -1.47230       -2.21960        0.80920
H         -0.63080       -3.76610        0.64100
H         -0.65890       -2.94570        2.21130
