13
gdb 2202	4.77857	2.26281	1.70441	1.0151	50.46	-0.2582	-0.0386	0.2196	703.6578	0.100187	-381.581478	-381.574371	-381.573427	-381.612486	25.358
O          0.18650        1.38880        0.10840
C          0.08840        0.00270        0.06560
C         -1.31000       -0.72650        0.02580
C         -0.73450       -1.76170       -1.01640
O         -1.48970       -2.20570       -2.09570
C          0.28320       -0.65880       -1.29640
O          0.60620       -0.16490       -2.34740
H          0.23360        1.69860       -0.80590
H          0.71190       -0.43300        0.85340
H         -1.67160       -1.13590        0.96830
H         -2.06660       -0.08970       -0.43730
H         -0.30880       -2.62180       -0.48880
H         -1.30880       -1.60860       -2.83380
