17
gdb 5122	3.298	2.01219	1.26956	1.5699	72.14	-0.1756	0.0515	0.2271	946.7891	0.141495	-363.897709	-363.888925	-363.88798	-363.931155	31.174
C         -0.03400        1.43650        0.01300
N          0.00580       -0.00770        0.01450
C          0.00260       -0.80050       -1.10010
C          0.04810       -2.11930       -0.70320
C          0.07990       -2.10940        0.71640
O          0.12890       -3.17970        1.57080
C          0.05350       -0.80140        1.15160
C          0.07000       -0.25830        2.53960
H          0.85390        1.86190        0.49410
H         -0.06780        1.78800       -1.01990
H         -0.92060        1.81300        0.53540
H         -0.03190       -0.36330       -2.08550
H          0.05730       -2.98270       -1.35190
H          0.13950       -3.98400        1.04570
H          0.94110        0.38070        2.73700
H         -0.82430        0.33340        2.77630
H          0.10800       -1.09320        3.24290
