14
gdb 16656	3.23642	2.26285	1.53718	3.0609	57.19	-0.2501	-0.0421	0.2081	797.1641	0.107091	-419.671725	-419.664938	-419.663994	-419.702969	25.416
O          0.41180        1.03180        0.72770
C         -0.04700       -0.09140        0.03010
C         -1.57330       -0.12590       -0.20270
C         -1.73020       -0.66230       -1.62040
O         -1.32240        0.29250       -2.60010
C         -0.42300       -0.79140       -2.29700
C          0.61550       -0.25380       -1.34330
O          1.76000        0.04520       -1.57450
H          1.30860        1.20030        0.40470
H          0.22860       -1.02490        0.56070
H         -2.08320       -0.75700        0.52880
H         -1.98590        0.88430       -0.13630
H         -2.57640       -1.28310       -1.90120
H         -0.18660       -1.47110       -3.10960
