16
gdb 17118	4.9079	1.4173	1.32576	2.3512	65.93	-0.2536	0.0198	0.2734	953.9932	0.131796	-379.890808	-379.883632	-379.882688	-379.922748	26.649
N          0.34390        0.98780        0.48910
C          0.09720       -0.13030       -0.01650
C         -1.08910       -1.06810       -0.02770
C         -0.19390       -1.93490       -0.94690
O          0.88680       -0.94950       -0.81080
C          0.20980       -3.30240       -0.46890
C          1.60050       -3.78270       -0.64220
N          1.07840       -3.46540        0.70270
H          1.28480        1.30720        0.25300
H         -1.32160       -1.51180        0.94220
H         -1.99650       -0.65950       -0.47380
H         -0.52770       -1.97150       -1.98910
H         -0.60390       -4.02470       -0.52110
H          1.79230       -4.83540       -0.82670
H          2.31500       -3.09510       -1.08480
H          1.44090       -2.55420        0.97780
