16
gdb 6657	7.10076	0.75028	0.69442	6.8656	66.1	-0.2589	0.0184	0.2772	1518.169	0.12952	-379.978385	-379.969039	-379.968095	-380.014276	31.277
N         -0.04110        1.32810        0.21310
C          0.05460        0.02200       -0.16840
O          1.09280       -0.46880       -0.56490
C         -1.25160       -0.77080       -0.07680
C         -0.99300       -2.27280        0.04750
C         -2.29780       -3.08600       -0.04560
C         -2.07590       -4.52400        0.09340
N         -1.88970       -5.65860        0.20790
H          0.76940        1.91620        0.10850
H         -0.90650        1.74400        0.50810
H         -1.86180       -0.40470        0.75810
H         -1.82370       -0.56170       -0.99170
H         -0.29900       -2.57930       -0.73830
H         -0.49620       -2.48850        0.99840
H         -3.00470       -2.77210        0.73210
H         -2.79200       -2.90430       -1.00770
