22
gdb 18475	3.25091	1.47293	1.28889	0.2001	82.01	-0.2455	0.0868	0.3323	1096.3791	0.200636	-313.045976	-313.03739	-313.036446	-313.078859	32.98
C         -0.53570        1.65860        0.30830
C         -0.19140        0.19730       -0.00820
C          0.50010       -0.48250        1.16010
C         -0.18010       -1.18200        2.30470
C         -1.35420       -2.05000        1.82580
C         -0.35640       -2.90290        0.96820
C         -0.63370       -3.21130       -0.49980
C          0.77960       -1.94930        1.37650
H          0.36560        2.23450        0.54680
H         -1.02730        2.14560       -0.53970
H         -1.20680        1.72530        1.17130
H         -1.10810       -0.33160       -0.28310
H          0.46050        0.15670       -0.89060
H          1.34570        0.10750        1.51740
H         -0.02360       -0.88160        3.33420
H         -1.82210       -2.62840        2.62520
H         -2.14630       -1.52650        1.27990
H         -0.19790       -3.85220        1.49180
H         -0.81120       -2.30990       -1.09110
H          0.21550       -3.73820       -0.95010
H         -1.51330       -3.85730       -0.60250
H          1.79140       -2.28120        1.58570
