12
gdb 4309	4.10071	2.00428	1.35749	3.7839	58.46	-0.2843	-0.0818	0.2026	834.834	0.083999	-414.723944	-414.717204	-414.71626	-414.755315	23.798
C         -0.02460        1.48610        0.03290
C          0.00310       -0.00700       -0.02280
N         -0.03580       -0.59930       -1.18080
C         -0.01040       -1.97040       -1.23670
O         -0.03860       -2.66650       -2.19920
O          0.05940       -2.65060        0.04140
C          0.09290       -1.92290        1.14390
N          0.07000       -0.63990        1.21050
H          0.86980        1.84790        0.55120
H         -0.07790        1.90840       -0.96940
H         -0.88280        1.81260        0.62980
H          0.14490       -2.53290        2.04370
