12
gdb 2057	5.04747	2.72562	1.82082	1.3859	50.9	-0.2421	-0.0374	0.2046	641.4597	0.090725	-360.53251	-360.52635	-360.525406	-360.563693	21.157
O         -0.00500        0.01150       -0.38220
C         -0.00720        1.14860        0.02010
C         -1.32520        1.85850        0.30400
O         -1.23690        3.02390        1.12780
C         -0.03840        3.64910        1.21350
N          1.10320        3.27670        0.82640
C          1.25690        1.96550        0.21900
H         -1.76250        2.14420       -0.66340
H         -2.01260        1.16100        0.78810
H         -0.16700        4.60540        1.71640
H          1.95180        1.36610        0.82090
H          1.74590        2.07100       -0.75930
