17
gdb 12538	3.4073	1.83864	1.26687	2.0229	65.44	-0.2448	0.0153	0.2602	935.9791	0.143567	-400.997253	-400.989668	-400.988723	-401.029319	28.255
O          0.02720        1.39310        0.11640
C          0.00730       -0.02420       -0.00620
C         -1.44860       -0.45680        0.07530
C         -1.63790       -1.97500        0.14560
N         -1.23210       -2.79440       -0.98460
C         -0.15200       -2.68940       -1.62170
O          0.88360       -1.80220       -1.54350
C          0.64210       -0.41030       -1.34490
H          0.94430        1.68180        0.16790
H          0.57770       -0.50040        0.80850
H         -1.89180       -0.01030        0.97210
H         -1.98980       -0.04710       -0.78670
H         -1.11030       -2.35800        1.03260
H         -2.69940       -2.17900        0.31940
H          0.09710       -3.44910       -2.36450
H          0.01380       -0.02300       -2.15810
H          1.63100        0.05170       -1.43040
