20
gdb 6029	2.34909	1.85562	1.44865	1.538	71.14	-0.2481	-0.0203	0.2278	991.2024	0.173134	-386.156859	-386.146842	-386.145898	-386.190879	36.491
C         -0.20930        1.46990        0.03640
C         -0.02570       -0.04700        0.09220
O          0.58170       -0.52860       -1.10880
C          0.85820       -0.55930        1.25230
C          0.99560       -2.09960        1.16360
C          2.26570        0.07180        1.24910
C          0.20940       -0.28630        2.60010
O         -0.89510        0.15740        2.78860
H          0.74410        1.97990       -0.12670
H         -0.87320        1.73060       -0.79660
H         -0.66970        1.84210        0.95350
H         -1.01670       -0.50800        0.22060
H          0.07360       -0.18720       -1.85080
H          1.53970       -2.36910        0.25700
H          1.54030       -2.49370        2.02820
H          0.01350       -2.58180        1.12960
H          2.23610        1.15020        1.42910
H          2.89370       -0.37850        2.02460
H          2.73890       -0.10160        0.27990
H          0.86050       -0.56930        3.46180
