16
gdb 11840	6.96725	1.12817	1.09723	1.6649	71.79	-0.2576	0.0472	0.3048	1083.5623	0.129113	-346.536344	-346.528804	-346.52786	-346.568255	28.717
C         -0.65290       -0.99850       -0.76180
C         -0.27830        0.05760       -0.32500
C          0.18630        1.31640        0.21640
C          0.07420        1.54670        1.76580
C          1.47360        2.15940        1.70710
C          1.93680        3.43850        2.24710
O          2.39620        2.18250        2.77340
C          1.73480        1.55190        0.32880
H         -0.98650       -1.92830       -1.15070
H         -0.27930        2.14980       -0.31850
H         -0.75110        2.16700        2.12040
H          0.07680        0.59800        2.30840
H          2.68470        4.01780        1.70680
H          1.29260        4.01330        2.91150
H          2.27480        0.60500        0.40620
H          2.20200        2.17640       -0.43510
