17
gdb 7745	3.2607	1.87523	1.24023	3.2598	71.9	-0.2126	0.0019	0.2146	971.578	0.143622	-363.927209	-363.919621	-363.918677	-363.958966	28.778
C          0.02980        1.50910        0.04150
C         -0.06520        0.01340       -0.01130
C         -1.19440       -0.69280        0.10430
C         -1.16320       -2.19870        0.08400
C          0.00780       -2.70850       -0.77120
C          1.31820       -1.98180       -0.50020
O          2.41520       -2.49190       -0.59760
N          1.16520       -0.64720       -0.18660
H          0.68150        1.83490        0.86240
H          0.45170        1.91400       -0.88640
H         -0.95500        1.95300        0.19620
H         -2.13510       -0.17400        0.24270
H         -1.07000       -2.58650        1.11020
H         -2.10360       -2.60310       -0.30410
H          0.18830       -3.77700       -0.64090
H         -0.21790       -2.54390       -1.83390
H          2.02640       -0.12860       -0.09330
