14
gdb 10046	3.26629	1.37504	1.01151	1.3483	62.82	-0.3058	-0.0099	0.2959	1089.939	0.10568	-378.731347	-378.722701	-378.721756	-378.765237	28.926
C         -0.18330        1.42470       -0.08110
O          0.13840        0.04870        0.07130
C          0.69660       -0.54320       -1.06730
C          1.23730       -1.92610       -0.64950
C          2.34110       -1.80090        0.29840
N          3.22680       -1.70230        1.03270
C         -0.30040       -0.69990       -2.15350
N         -1.08440       -0.81170       -2.99440
H          0.70800        2.01260       -0.34050
H         -0.95130        1.57460       -0.85090
H         -0.56790        1.75960        0.88290
H          1.52470        0.06470       -1.46500
H          0.42260       -2.49590       -0.19260
H          1.57600       -2.47470       -1.53360
