18
gdb 13543	3.7039	1.35049	1.09047	1.3592	74.22	-0.2613	0.0334	0.2947	1110.7944	0.151274	-347.750664	-347.741487	-347.740543	-347.784525	33.504
C          0.07100        1.56810       -0.21770
C          0.04520        0.06680       -0.02510
C          1.30510       -0.76140       -0.09810
C          0.57710       -0.60870        1.21710
C          1.18960        0.19070        2.35510
O          0.20480        0.89680        3.11120
C          2.00720       -0.67120        3.21790
C          2.63300       -1.40050        3.94050
H          1.01430        2.01000        0.11570
H         -0.04760        1.82090       -1.27680
H         -0.73500        2.05310        0.34190
H         -0.84320       -0.40690       -0.43570
H          1.28530       -1.72550       -0.59370
H          2.24500       -0.22800       -0.20950
H          0.02590       -1.47980        1.56330
H          1.82920        0.97750        1.94110
H         -0.30480        0.24270        3.60230
H          3.20240       -2.03200        4.57690
