8
gdb 62	10.84211	4.27948	3.06837	5.1668	33.39	-0.2533	-0.0763	0.177	381.9882	0.054577	-283.16874	-283.163262	-283.162318	-283.197298	17.525
N         -0.05530        1.32550        0.00900
C          0.08910       -0.02930        0.00070
O          1.14630       -0.61560       -0.01180
C         -1.26570       -0.76620        0.00970
O         -1.34630       -1.95990        0.00460
H          0.76920        1.90390        0.00450
H         -0.95540        1.77240        0.01980
H         -2.17180       -0.11400        0.02140
