20
gdb 12884	2.42474	2.37017	1.71505	1.3101	74.47	-0.228	0.0824	0.3104	898.1355	0.17735	-349.003619	-348.995499	-348.994554	-349.035668	31.032
C         -0.05490        1.57880        0.08290
C          0.04030        0.07130        0.04010
C          1.31010       -0.68230       -0.35290
C          2.64370        0.06210       -0.32560
C          2.95340        0.14310        1.18480
O          1.69890        0.04020        1.86260
C          0.81240       -0.72500        1.06850
C          0.25300       -1.93360        1.76850
H          0.78590        2.01660        0.62510
H         -0.08190        2.00980       -0.92420
H         -0.96940        1.88810        0.60020
H         -0.86680       -0.41970       -0.30720
H          1.20980       -1.54240       -1.00560
H          3.41850       -0.48810       -0.86620
H          2.57570        1.05740       -0.77650
H          3.61370       -0.68340        1.48980
H          3.42120        1.08380        1.49050
H         -0.31770       -1.63900        2.65580
H         -0.41600       -2.48950        1.10470
H          1.05510       -2.60610        2.09160
