15
gdb 12903	3.31343	1.86303	1.52647	5.6511	65.99	-0.2324	0.0347	0.2671	856.5383	0.120401	-358.797387	-358.790115	-358.789171	-358.828695	27.612
N         -0.05280        1.47850        0.10340
C         -0.04460        0.06860       -0.04970
C          0.60190       -0.79360       -1.15270
N         -0.49000       -1.81930       -1.00760
C         -1.17990       -0.94110       -0.05190
C         -0.31100       -0.79390        1.18080
C          0.59010       -1.81770        1.63670
N          1.33030       -2.62180        2.01520
H          0.81810        1.81530        0.50390
H         -0.18680        1.94810       -0.78650
H          0.57350       -0.27940       -2.11930
H          1.60790       -1.18590       -0.97400
H         -1.02000       -1.90520       -1.86810
H         -2.25730       -0.83800       -0.00380
H         -0.78020       -0.21670        1.97150
