15
gdb 23735	3.26333	2.18145	1.31805	1.0278	70.63	-0.2363	-0.0028	0.2335	881.8796	0.119688	-370.706479	-370.699627	-370.698682	-370.737528	26.108
C         -0.02770        1.52840        0.02880
C         -0.00600        0.02340       -0.01430
C         -0.03550       -0.70230       -1.20630
C         -0.01420       -2.09590       -1.21190
C          0.03760       -2.79460       -0.00930
C          0.06800       -2.09800        1.19700
C          0.04570       -0.71320        1.16900
F          0.07500       -0.04070        2.33090
H          0.86190        1.92610        0.52870
H         -0.06830        1.94600       -0.98000
H         -0.89340        1.89910        0.58810
H         -0.07590       -0.15890       -2.14560
H         -0.03800       -2.63250       -2.15390
H          0.05450       -3.87900       -0.00340
H          0.10840       -2.60630        2.15330
