20
gdb 13890	3.73697	1.44276	1.29004	2.8043	70.27	-0.2381	0.0625	0.3006	1034.8979	0.177752	-386.144756	-386.136214	-386.13527	-386.1783	31.568
C          0.01110        1.51580       -0.17790
C          0.06430       -0.00610       -0.02470
O          0.82150       -0.60720       -1.07490
C          0.69750       -0.45340        1.29710
C          0.76880       -1.99870        1.46370
C          2.27560       -2.27380        1.61460
O          2.82770       -1.07840        2.14660
C          2.17640       -0.01650        1.46860
H          1.01670        1.94680       -0.16740
H         -0.46480        1.79380       -1.12570
H         -0.57180        1.97120        0.62950
H         -0.96810       -0.39350       -0.04850
H          0.44870       -0.32170       -1.91440
H          0.09460       -0.02580        2.10400
H          0.22600       -2.31490        2.35810
H          0.34640       -2.52090        0.60280
H          2.51310       -3.08860        2.30340
H          2.72210       -2.50140        0.63390
H          2.63320        0.14930        0.48170
H          2.29990        0.88680        2.07150
