17
gdb 18967	5.8714	1.4553	1.41441	2.7092	68.41	-0.2393	0.0751	0.3144	918.5586	0.143325	-363.752432	-363.745757	-363.744812	-363.783367	26.193
O          0.03320        1.43020        0.16370
C          0.11270        0.05280       -0.16280
C         -1.26780       -0.57250       -0.12860
C         -1.50620       -2.06290        0.10810
C         -1.20430       -1.88080        1.62830
C         -2.52610       -2.50490        2.08220
C         -2.84730       -1.70330        0.81990
N         -1.91460       -0.54030        1.26080
H         -0.51850        1.48790        0.95380
H          0.53890       -0.01060       -1.17030
H          0.79760       -0.48150        0.51530
H         -1.91450       -0.09140       -0.87320
H         -1.29200       -2.93250       -0.52210
H         -0.23630       -1.88230        2.12950
H         -2.60820       -3.59230        2.01160
H         -2.94520       -2.12400        3.01720
H         -3.80650       -1.48200        0.34840
