20
gdb 17237	4.31597	1.58593	1.52626	0.2951	78.28	-0.2383	0.0935	0.3318	950.8165	0.178303	-311.825774	-311.818471	-311.817527	-311.857169	29.125
C          0.06030        1.47300       -0.23990
C         -0.07750       -0.00160        0.16390
C         -1.49580       -0.49540        0.11700
C         -2.65270       -0.10080        1.04070
C         -3.40620       -1.32500        0.45540
C         -3.65400       -0.93720       -1.02890
C         -2.13730       -1.01330       -1.18680
C         -2.00250       -1.91640        0.02030
H          1.10250        1.80270       -0.18570
H         -0.29430        1.63480       -1.26290
H         -0.52850        2.11860        0.42030
H          0.54240       -0.62320       -0.49550
H          0.32340       -0.14120        1.17700
H         -2.38060       -0.25410        2.09000
H         -3.12310        0.88370        0.92420
H         -4.17090       -1.83890        1.03430
H         -4.15110       -1.74070       -1.58020
H         -4.16550        0.01350       -1.22370
H         -1.55970       -1.04860       -2.10260
H         -1.51480       -2.87090        0.15870
