18
gdb 11747	5.37865	1.32214	1.20471	1.1935	67.9	-0.2327	0.0689	0.3016	1040.0838	0.152686	-384.89553	-384.887365	-384.886421	-384.928026	30.624
C         -0.24800        1.47010        0.18240
C          0.04700       -0.01240        0.26870
O          0.78480       -0.52900       -0.88670
C          1.72660       -1.16480       -0.01370
C          2.17460       -2.54690       -0.40340
O          3.17430       -3.06380        0.45650
C          2.49590       -0.13910        0.75920
C          1.10890       -0.55990        1.22290
H          0.67040        2.06150        0.14140
H         -0.83600        1.68730       -0.71510
H         -0.82880        1.78850        1.05480
H         -0.88720       -0.58130        0.36460
H          1.33040       -3.24230       -0.34930
H          2.50330       -2.52110       -1.45490
H          3.97950       -2.56030        0.30040
H          3.28890       -0.52610        1.39130
H          2.67960        0.84090        0.32830
H          0.92730       -0.99020        2.19830
