20
gdb 20131	4.90945	1.35421	1.21872	0.2056	78.75	-0.2494	0.0901	0.3394	1061.2447	0.178504	-311.824081	-311.816719	-311.815775	-311.855884	29.123
C         -0.20990        1.38680       -0.21760
C          1.23170        1.21890        0.19570
C          0.34810        0.00640        0.03120
C         -0.09200       -0.77930        1.23860
C         -1.35020       -1.71830        1.13880
C         -0.49670       -2.88800        1.64370
C          0.65030       -3.12310        0.70370
C          0.74260       -1.99120        1.69110
H         -0.90260        1.79100        0.51380
H         -0.42220        1.68410       -1.23860
H          2.00400        1.40070       -0.54360
H          1.50750        1.51150        1.20390
H          0.53290       -0.59170       -0.85740
H         -0.22750       -0.08830        2.07810
H         -2.14760       -1.42070        1.82330
H         -1.78080       -1.84530        0.13930
H         -0.81850       -3.64010        2.35360
H          1.27630       -3.97960        0.93370
H          0.53680       -2.93610       -0.36200
H          1.53330       -1.95790        2.43170
