14
gdb 625	7.09242	2.32143	1.99737	1.0353	49.8	-0.25	0.079	0.329	634.7594	0.11882	-307.536915	-307.530074	-307.52913	-307.567447	24.284
O         -0.04790        1.26790       -0.49290
C          0.00230       -0.00660        0.14070
C         -1.38510       -0.59030        0.12380
C         -1.90170       -1.25170       -1.13960
C         -1.58700       -2.07770        0.08050
O         -0.43960       -2.88150        0.10120
H          0.82860        1.65930       -0.43320
H          0.69280       -0.68820       -0.37350
H          0.34960        0.08620        1.18220
H         -2.10930       -0.02760        0.70560
H         -2.93690       -1.10600       -1.42770
H         -1.20220       -1.31830       -1.96660
H         -2.42560       -2.47860        0.64990
H         -0.58520       -3.61670       -0.50280
