11
gdb 21391	5.8327	2.32017	1.65989	3.951	56.25	-0.2344	-0.0237	0.2108	681.1339	0.076194	-389.754143	-389.748837	-389.747893	-389.783411	20.161
N          0.03050        1.33400        0.05590
N          1.30680        1.82470        0.03110
C          2.09120        0.78460       -0.00770
N          1.35770       -0.38660       -0.00890
C          1.31240       -1.76750       -0.03180
N          0.06200       -2.15920       -0.00570
N         -0.78130       -1.05830        0.03560
C          0.02880       -0.02800        0.03220
H         -0.75030        1.96400        0.08780
H          3.16600        0.83640       -0.03500
H          2.18100       -2.40260       -0.06570
