20
gdb 12816	3.24601	1.97713	1.56057	1.4352	74.45	-0.2351	0.0884	0.3235	909.1024	0.178523	-349.001974	-348.994464	-348.99352	-349.033226	29.99
C         -0.00230        1.50650       -0.00030
C         -0.03010       -0.00950        0.01320
C         -0.85750       -0.67060        1.09950
C          0.65130       -0.71190        1.16540
O          1.28070       -1.95110        0.99530
C          1.70880       -2.23150       -0.32940
C          0.55370       -2.10930       -1.31970
C          0.06730       -0.65250       -1.36580
H          0.91020        1.88350       -0.47720
H         -0.85870        1.90860       -0.55540
H         -0.04510        1.91780        1.01320
H         -1.39910       -0.03270        1.79060
H         -1.34440       -1.61420        0.87820
H          1.15210       -0.09930        1.91320
H          2.52960       -1.55590       -0.62430
H          2.10630       -3.25000       -0.29790
H          0.87410       -2.43040       -2.31690
H         -0.24880       -2.78710       -1.00540
H         -0.89230       -0.57490       -1.89180
H          0.78910       -0.07010       -1.95480
