20
gdb 17269	5.35076	0.97792	0.91174	1.6974	75.9	-0.2581	0.0933	0.3513	1324.7357	0.17622	-348.97084	-348.962165	-348.961221	-349.00478	31.675
C          0.05750        1.52480       -0.31860
C         -0.03630        0.06660        0.07660
C          1.16970       -0.84070        0.01530
C          0.55790       -0.48500        1.35260
C          1.31160        0.36590        2.35710
C          2.21620       -0.47480        3.22840
C          2.44440       -0.17870        4.64720
O          1.57560       -1.24260        4.25370
H          1.02710        1.96070       -0.06070
H         -0.07130        1.64010       -1.40050
H         -0.71710        2.12450        0.17280
H         -0.97620       -0.39710       -0.21330
H          1.05610       -1.84980       -0.36560
H          2.12130       -0.37960       -0.23540
H         -0.01970       -1.27370        1.82750
H          1.92140        1.12030        1.84580
H          0.60750        0.90470        3.00330
H          2.99310       -1.02530        2.69430
H          3.37370       -0.48470        5.12630
H          1.95280        0.68170        5.10060
