20
gdb 6854	3.25081	1.81282	1.59515	1.0541	76.86	-0.2419	0.0244	0.2663	931.7382	0.177117	-349.022119	-349.014048	-349.013104	-349.053862	31.779
C          0.07560        1.48010       -0.04740
C         -0.05860       -0.04740        0.02000
C         -1.54690       -0.44810        0.04960
O          0.54870       -0.51940       -1.19050
C          0.97950       -1.86870       -1.16310
C          2.07770       -2.07980       -0.12040
C          1.64630       -1.46660        1.18430
C          0.66270       -0.57240        1.24120
H          1.13010        1.76560       -0.07370
H         -0.40840        1.85470       -0.95420
H         -0.39560        1.95230        0.81990
H         -2.06190       -0.03040       -0.82060
H         -1.66420       -1.53520        0.03690
H         -2.03450       -0.07280        0.95510
H          0.13890       -2.54770       -0.95100
H          1.33550       -2.08850       -2.17390
H          2.27370       -3.15240        0.00330
H          3.01980       -1.63040       -0.46360
H          2.15470       -1.78050        2.09240
H          0.33950       -0.15950        2.19380
