22
gdb 6015	2.52485	1.67379	1.36004	0.5638	83.51	-0.2573	0.0612	0.3185	1069.2119	0.1967	-313.049159	-313.038888	-313.037943	-313.083162	38.911
C          0.04600        1.56870        0.03230
C         -0.00340        0.03400        0.05090
C          0.86170       -0.50730        1.19950
C         -1.47180       -0.52900        0.04780
C         -1.46050       -2.07710        0.01360
C         -2.29010       -0.05840        1.27360
C         -2.14330       -0.06360       -1.17360
C         -2.69880        0.29590       -2.17820
H          1.07200        1.91020       -0.13850
H         -0.58450        1.97990       -0.76000
H         -0.28220        1.99460        0.98670
H          0.44010       -0.31900       -0.88960
H          0.47200       -0.20920        2.17860
H          0.94570       -1.59680        1.18570
H          1.87520       -0.10090        1.11950
H         -1.08250       -2.48680        0.95420
H         -2.47360       -2.45920       -0.13820
H         -0.83440       -2.44720       -0.80380
H         -2.38550        1.02920        1.30080
H         -3.29850       -0.47980        1.23520
H         -1.82120       -0.39040        2.20460
H         -3.18940        0.61680       -3.06360
