14
gdb 7934	3.50313	1.85037	1.29411	1.8916	57.9	-0.261	-0.0505	0.2105	896.9944	0.105967	-419.744533	-419.737133	-419.736189	-419.776919	26.502
C         -0.06280        1.56070       -0.03180
C          0.04850        0.04250       -0.00430
O          0.77780       -0.44340       -1.14400
C          1.84090       -1.23120       -0.80860
O          2.56040       -1.70780       -1.63370
C          1.91830       -1.37180        0.70360
C          0.80360       -0.48480        1.22290
O          0.53670       -0.21310        2.36180
H          0.92900        2.02140       -0.04830
H         -0.61360        1.88690       -0.91670
H         -0.59040        1.89640        0.86440
H         -0.95070       -0.41200       -0.02430
H          1.76170       -2.41510        0.99680
H          2.89940       -1.07660        1.08440
