13
gdb 18210	4.44629	1.80531	1.4804	5.5473	57.88	-0.2848	0.01	0.2947	814.7366	0.096187	-398.58109	-398.574625	-398.573681	-398.612036	23.567
N          0.11240       -1.16280       -0.06720
C          0.06140       -0.01010       -0.03290
C          0.00920        1.45820       -0.05130
O         -0.64730        1.91610        1.12380
C         -0.06800        3.14840        1.55790
C          1.31870        3.18250        0.95880
O          2.05480        1.97740        1.19560
C          1.38210        2.12270       -0.04840
H         -0.53160        1.76900       -0.96030
H         -0.65070        4.01100        1.20110
H         -0.07190        3.14440        2.65170
H          1.89150        4.10320        0.90290
H          1.98680        2.14520       -0.94960
