16
gdb 13073	3.78901	1.2384	1.0371	2.1914	70.14	-0.2405	0.0301	0.2706	1161.3163	0.128189	-383.683571	-383.67451	-383.673566	-383.719233	30.368
C          0.06670        1.51990       -0.08050
C          0.03510        0.06730       -0.01140
C         -0.00030       -1.13460        0.04920
C         -0.01570       -2.58360        0.12280
O          0.10010       -3.10620        1.47700
C         -1.27190       -3.55150        1.48190
C         -1.40210       -3.28000       -0.03210
O         -2.43270       -2.44850       -0.48420
H          0.86310        1.87240       -0.74520
H         -0.88270        1.91920       -0.45390
H          0.24330        1.95550        0.90910
H          0.77370       -3.00270       -0.51300
H         -1.36650       -4.58770        1.82570
H         -1.91890       -2.89750        2.08120
H         -1.32030       -4.19310       -0.63390
H         -3.19250       -2.99460       -0.70600
