19
gdb 14737	10.48312	0.61271	0.60617	2.3361	74.39	-0.2381	0.0192	0.2572	1858.311	0.162632	-402.174007	-402.163788	-402.162844	-402.211151	33.232
C          0.80380        0.99850        0.51020
O          1.12610        0.31910       -0.68190
C          0.01720       -0.25900       -1.33960
C         -0.37280       -1.62750       -0.75800
N         -1.54580       -2.13110       -1.44240
C         -1.43360       -3.21870       -2.06490
O         -2.47950       -3.73890       -2.73520
C         -2.22970       -4.96950       -3.40340
H          0.07060        1.80080        0.33260
H          0.39940        0.33150        1.28580
H          1.72840        1.44360        0.88680
H         -0.85650        0.40950       -1.31530
H          0.30910       -0.38580       -2.38780
H          0.49750       -2.30230       -0.82330
H         -0.61710       -1.51090        0.30510
H         -0.51330       -3.82300       -2.11290
H         -1.45940       -4.85860       -4.17630
H         -1.92580       -5.75460       -2.70040
H         -3.16920       -5.25850       -3.87580
