15
gdb 15317	3.26225	1.44366	1.10225	4.5791	63.49	-0.2589	-0.0398	0.2191	1040.6809	0.116823	-399.794531	-399.786361	-399.785417	-399.82852	27.739
O          0.35880       -0.09610       -0.56690
C          0.22200        1.07640       -0.33880
C          1.36510        2.05060       -0.11630
C          1.31210        3.21220       -1.09250
C          2.56500        3.95370       -1.46720
N          1.89780        3.09580       -2.41750
C          2.47510        1.96620       -2.98070
O          3.62340        1.89660       -3.34240
H         -0.79140        1.53780       -0.27970
H          1.26520        2.45290        0.90200
H          2.31290        1.50960       -0.18610
H          0.38130        3.77850       -1.07110
H          2.52090        5.02040       -1.66770
H          3.50870        3.59500       -1.06360
H          1.73890        1.15460       -3.12600
