14
gdb 3717	7.05638	1.90454	1.65301	4.0273	58.84	-0.2496	0.0024	0.2519	759.0825	0.115359	-320.764992	-320.758501	-320.757557	-320.79604	23.119
C          0.04610        1.56480       -0.18630
C         -0.03650        0.05880        0.11170
C         -1.42730       -0.48130       -0.00900
C         -1.97190       -1.34140       -0.93460
N         -3.26780       -1.45710       -0.55690
N         -3.52900       -0.72000        0.53680
N         -2.41780       -0.12990        0.86750
H          1.06780        1.93260       -0.05090
H         -0.26060        1.77930       -1.21500
H         -0.61350        2.12230        0.48390
H          0.62400       -0.49500       -0.56430
H          0.32660       -0.12750        1.12890
H         -1.56410       -1.85780       -1.78710
H         -4.00570       -2.00290       -0.97200
