22
gdb 18123	3.74044	1.81226	1.36497	0.1317	80.66	-0.2937	0.077	0.3707	980.2523	0.204933	-313.10836	-313.1013	-313.100356	-313.139786	28.818
C         -0.05900        1.57530       -0.06850
C          1.43310        1.94330        0.01410
C          2.14240        0.86030       -0.82850
C          3.50240        0.33470       -0.31860
C          3.47370       -1.17090       -0.63660
C          2.02250       -1.56990       -0.31470
C          1.17610       -0.38320       -0.82590
C         -0.04670        0.03870        0.01810
H         -0.66480        2.04760        0.71140
H         -0.47070        1.89320       -1.03510
H          1.64430        2.96110       -0.32750
H          1.76610        1.88090        1.05840
H          2.25900        1.22270       -1.85540
H          4.35780        0.85170       -0.76370
H          3.57330        0.47580        0.76790
H          3.67960       -1.33310       -1.70250
H          4.21540       -1.74610       -0.07340
H          1.73200       -2.52770       -0.75690
H          1.90530       -1.67070        0.77220
H          0.85170       -0.58840       -1.85170
H          0.09820       -0.26580        1.06290
H         -0.98160       -0.41830       -0.32040
