13
gdb 5427	3.60163	1.85523	1.22562	4.3936	64.76	-0.2097	-0.0269	0.1828	901.6032	0.096061	-398.641719	-398.634682	-398.633738	-398.672913	26.036
N          0.07880        1.34430        0.16460
C         -0.04900       -0.01260        0.05390
C         -1.13820       -0.86530        0.02010
C         -2.53420       -0.49950        0.01400
O         -3.46520       -1.27990       -0.01950
C         -0.57250       -2.19630       -0.01990
C          0.76420       -2.05360       -0.01060
O          1.10120       -0.70490        0.03560
H          0.95470        1.71890       -0.16990
H         -0.72670        1.88420       -0.11100
H         -2.72660        0.60120        0.04210
H         -1.13610       -3.11440       -0.05390
H          1.60340       -2.72670       -0.02990
