18
gdb 14103	3.10875	1.71144	1.45295	2.9015	68.08	-0.2383	0.0715	0.3099	942.9014	0.15239	-384.89968	-384.891453	-384.890509	-384.932261	30.68
C         -0.30090        1.44620        0.05560
C          0.13200       -0.00240       -0.03660
O          1.36440       -0.16840       -0.79410
C          2.02740       -0.82240        0.30740
C          0.79060       -0.65890        1.17850
C          0.67250       -0.27980        2.63000
C          0.16010       -1.61310        2.12960
O         -1.21570       -1.80330        1.96770
H          0.47830        2.06050        0.51640
H         -0.50770        1.83990       -0.94450
H         -1.21680        1.53200        0.65040
H         -0.67010       -0.61460       -0.46910
H          2.30730       -1.85750        0.06800
H          2.92280       -0.27580        0.63210
H          1.57150       -0.26350        3.23930
H         -0.07050        0.46810        2.88960
H          0.72310       -2.50740        2.40220
H         -1.60830       -1.91230        2.84020
