17
gdb 6831	3.38104	1.55369	1.37821	0.9988	67.36	-0.2524	0.023	0.2754	987.0951	0.13995	-400.992923	-400.983894	-400.98295	-401.026697	31.565
C          0.03730        1.38090        0.04070
N          0.29090       -0.05390        0.06150
C          0.59180       -0.64310       -0.99860
O          0.75470       -0.18660       -2.29350
C          0.95730       -1.55000       -2.78780
C          0.84930       -2.10390       -1.34780
C          2.10250       -2.72160       -0.74360
O         -0.28280       -2.93670       -1.19440
H          0.78950        1.88800        0.65520
H          0.04980        1.82110       -0.96300
H         -0.93660        1.57740        0.50130
H          0.14050       -1.85860       -3.44250
H          1.92540       -1.64610       -3.28400
H          2.98350       -2.09880       -0.92620
H          1.98150       -2.82490        0.33920
H          2.27200       -3.71380       -1.17220
H         -0.59710       -2.82410       -0.28950
