16
gdb 18195	4.28899	1.68612	1.40119	0.9542	69.08	-0.2354	0.0494	0.2848	891.729	0.130966	-346.55235	-346.545353	-346.544409	-346.58344	27.324
C         -0.36780       -1.20410       -0.52510
C         -0.16310       -0.05170       -0.25050
C          0.07840        1.33960        0.10270
C         -0.32500        1.66830        1.57480
O          0.50710        2.74130        1.99210
C          1.70860        2.66730        1.26740
C          2.44030        1.35210        1.18990
C          1.53740        1.80000        0.05500
H         -0.54490       -2.22060       -0.77580
H         -0.49370        1.98510       -0.57530
H         -1.36640        1.98440        1.66980
H         -0.17450        0.78300        2.20530
H          2.24190        3.61010        1.27320
H          3.50890        1.39230        1.00900
H          2.12790        0.52720        1.82090
H          1.96310        2.04710       -0.90950
