14
gdb 2249	3.91645	3.01251	2.09088	3.5669	57.93	-0.242	0.0113	0.2532	650.2804	0.113773	-324.574476	-324.568064	-324.56712	-324.604501	24.032
C         -0.01910        1.57740        0.06890
C          0.08100        0.08250        0.01930
C         -0.83930       -0.87730        0.78780
C          0.64300       -0.94340        0.99100
N          1.30320       -1.63770       -0.11930
C          0.74120       -0.75960       -1.07100
O          0.79710       -0.73690       -2.26750
H          0.95180        2.04660       -0.11900
H         -0.71820        1.94240       -0.69080
H         -0.37860        1.91820        1.04470
H         -1.42090       -0.40000        1.57280
H         -1.35220       -1.68590        0.27440
H          1.16140       -0.77530        1.92580
H          1.28790       -2.64570       -0.23460
