18
gdb 18587	4.25635	1.74983	1.3879	1.6209	74.54	-0.2253	0.011	0.2364	928.1737	0.154632	-347.778434	-347.77125	-347.770306	-347.809671	27.814
C         -0.00060        1.53950        0.17830
C          0.00890        0.02980        0.00200
C          1.12740       -0.65230       -0.88590
C          1.17780       -1.82210        0.16370
O          2.36740       -2.28240        0.77270
C          2.32800       -1.87960        2.15660
C          1.25580       -0.80130        2.23890
C          0.55800       -0.84800        1.11030
H          0.97740        1.89750        0.51550
H         -0.24170        2.04170       -0.76450
H         -0.74660        1.84660        0.91920
H         -0.97360       -0.32000       -0.33670
H          0.86190       -0.90600       -1.91520
H          2.05310       -0.07270       -0.86110
H          0.55520       -2.66860       -0.15920
H          2.12780       -2.75570        2.79460
H          3.31470       -1.48840        2.43860
H          1.22080       -0.06530        3.03220
