16
gdb 20363	6.00792	1.40091	1.2483	1.8377	71.02	-0.2258	0.0282	0.254	974.67	0.133417	-342.794494	-342.78771	-342.786766	-342.825833	25.976
C         -0.20310        1.31750       -0.30290
C          1.20490        1.09050        0.16850
C          0.23470       -0.07220        0.11330
C         -0.27960       -0.68690        1.35330
N         -0.50700       -2.00030        1.39690
N         -0.96170       -2.22680        2.64700
C         -1.03110       -1.10340        3.39810
C         -0.59540       -0.07370        2.59430
H         -0.88700        1.84170        0.35600
H         -0.37350        1.49910       -1.35830
H          2.00630        1.11540       -0.56170
H          1.48380        1.45950        1.14960
H          0.38470       -0.79340       -0.68220
H         -1.20310       -3.16520        2.91410
H         -1.37600       -1.12280        4.42000
H         -0.51720        0.96680        2.86460
