18
gdb 13793	4.12181	1.22531	1.10063	4.5759	69.87	-0.241	0.0226	0.2636	1140.4135	0.153357	-381.132398	-381.123262	-381.122318	-381.166755	32.386
C          0.50930        1.72270        0.11990
C         -0.19750        0.37550       -0.06740
C          0.36250       -0.38450       -1.24820
N          1.61190       -1.11430       -1.04180
C          0.39530       -1.88260       -1.35140
C         -0.14010       -2.78060       -0.26430
N         -0.85550       -3.84710       -0.73900
O          0.03090       -2.59240        0.92360
H          1.57880        1.57220        0.29680
H          0.40060        2.36310       -0.76360
H          0.09830        2.26590        0.97600
H         -0.08760       -0.24170        0.82630
H         -1.27190        0.53390       -0.22790
H          0.24190        0.12150       -2.20810
H          2.20740       -1.07170       -1.86420
H          0.30300       -2.28540       -2.35940
H         -1.08490       -3.95410       -1.71110
H         -1.32250       -4.43430       -0.06760
