16
gdb 16872	3.39148	2.05578	1.55349	3.7157	63.83	-0.2431	-0.0154	0.2277	834.0833	0.131743	-383.755521	-383.748738	-383.747794	-383.786791	25.806
O          0.07940       -0.19150        0.16700
C          0.01130        1.01260        0.19270
C         -1.30670        1.77200        0.19690
C         -1.42840        2.77230        1.36720
C         -0.12770        3.48040        1.69880
O          0.81700        2.71740        2.46160
C          1.16260        3.06360        1.11900
C          1.25390        1.90010        0.15770
H         -1.34960        2.33060       -0.74870
H         -2.12720        1.05180        0.19760
H         -2.19730        3.51480        1.13110
H         -1.76170        2.25110        2.27140
H         -0.22250        4.51280        2.03640
H          1.96000        3.80380        1.03880
H          2.13290        1.28500        0.37070
H          1.36160        2.28740       -0.86580
