13
gdb 1908	5.75701	2.35071	1.99359	4.4405	54.23	-0.2727	0.0039	0.2766	658.0128	0.101312	-344.458979	-344.452841	-344.451897	-344.488754	22.959
C          0.05800        1.48670       -0.02570
C          0.02150        0.00130        0.08230
C         -0.90630       -0.88070        0.83150
C          0.61380       -0.99020        1.06100
C          1.20700       -1.62380       -0.16590
O          1.97900       -2.48340       -0.43880
O          0.55570       -0.76590       -1.04640
H          1.06740        1.83450       -0.26290
H         -0.61900        1.83150       -0.81420
H         -0.25910        1.94190        0.91670
H         -1.43910       -0.42640        1.66200
H         -1.43720       -1.67590        0.31840
H          1.07980       -0.87100        2.02800
