20
gdb 7136	6.96088	0.75319	0.69544	3.4067	73.44	-0.2427	-0.0083	0.2343	1668.1378	0.17342	-386.149379	-386.139116	-386.138171	-386.186115	34.44
C         -0.10500        1.58090        0.00420
C         -0.00700        0.05590        0.08200
C         -1.36070       -0.63380       -0.09370
C         -1.27610       -2.15560       -0.09080
O         -0.23540       -2.75500       -0.19300
C         -2.61880       -2.87060        0.05150
O         -2.46440       -4.24500       -0.12220
C         -3.67110       -4.95500        0.02960
H          0.87690        2.04590        0.13460
H         -0.50020        1.90630       -0.96490
H         -0.76720        1.98090        0.78050
H          0.68060       -0.32210       -0.68080
H          0.42440       -0.24430        1.04370
H         -2.07480       -0.31190        0.67730
H         -1.82000       -0.33670       -1.04900
H         -3.02490       -2.62620        1.05210
H         -3.33120       -2.43890       -0.67630
H         -3.44490       -6.01270       -0.12300
H         -4.09980       -4.82350        1.03590
H         -4.42720       -4.64210       -0.70820
