18
gdb 6164	3.57474	1.41549	1.27821	3.5488	69.68	-0.247	-0.0264	0.2205	1050.1498	0.149816	-384.951734	-384.942479	-384.941535	-384.985565	33.084
C          0.72480        1.38190        0.19760
C         -0.14020        0.14480        0.03940
O         -0.80190       -0.30680        0.94540
C         -0.11850       -0.47050       -1.33640
O         -0.57370       -1.81200       -1.47730
C         -1.36260       -0.79800       -2.09700
C         -2.73380       -0.58340       -1.49790
C         -1.29380       -0.77400       -3.61010
H          1.78350        1.11400        0.09860
H          0.50750        2.11220       -0.59040
H          0.55370        1.82820        1.17750
H          0.76580       -0.22470       -1.92780
H         -2.69630       -0.63520       -0.41030
H         -3.14150        0.38610       -1.80360
H         -3.41500       -1.35980       -1.86280
H         -1.96000       -1.53680       -4.02750
H         -1.61460        0.19800       -3.99920
H         -0.27920       -0.97680       -3.96070
