18
gdb 16022	3.86691	1.83834	1.49257	1.7949	67.53	-0.259	0.0849	0.3439	885.3751	0.155974	-384.924997	-384.918127	-384.917183	-384.955839	27.158
C          0.01930        1.52230        0.01000
C          1.32250        0.75590       -0.00650
C          0.01030        0.01950        0.00210
C         -0.40480       -0.74290        1.24500
O          0.02660       -2.09740        1.16080
C         -0.45640       -2.70460       -0.00810
O          0.00420       -2.08480       -1.17940
C         -0.42850       -0.72950       -1.24080
H         -0.26660        2.03080        0.92550
H         -0.28400        2.04060       -0.89430
H          1.90330        0.75390       -0.92290
H          1.92070        0.74420        0.89840
H          0.04430       -0.32310        2.14950
H         -1.50290       -0.71120        1.35850
H         -0.07860       -3.72880       -0.01720
H         -1.56500       -2.70410        0.00250
H         -1.52860       -0.69680       -1.33300
H          0.00320       -0.30010       -2.14920
