19
gdb 7347	3.94242	1.12567	0.97319	4.2154	69.28	-0.2538	0.0226	0.2764	1255.5419	0.163857	-402.241402	-402.231653	-402.230709	-402.277544	34.202
C         -0.00330        1.21410       -0.51650
C         -0.11810        0.08100        0.50470
N         -1.39690       -0.61370        0.43850
C         -1.53510       -1.88050       -0.01910
O         -0.59870       -2.57860       -0.38610
C         -2.96690       -2.44580       -0.06560
C         -3.82460       -1.72630       -1.11730
O         -2.88940       -3.81730       -0.34820
H          0.96770        1.71060       -0.42490
H         -0.09840        0.82810       -1.53540
H         -0.78110        1.97030       -0.36390
H          0.64690       -0.67750        0.32790
H          0.02450        0.46850        1.52060
H         -2.22740       -0.11490        0.71570
H         -3.42440       -2.30240        0.92710
H         -3.35300       -1.79790       -2.10200
H         -4.80430       -2.20780       -1.17020
H         -3.97360       -0.66820       -0.87630
H         -1.94830       -3.97150       -0.54270
