17
gdb 5380	4.77239	1.45617	1.22408	2.6002	76.77	-0.2485	-0.018	0.2304	1013.252	0.144882	-326.794822	-326.78763	-326.786686	-326.826837	26.836
C         -0.04200        1.56070        0.04910
C          0.00100        0.02270        0.00410
C          0.70190       -0.49770       -1.22760
C          0.01060       -0.74090       -2.41610
C          0.70680       -1.18900       -3.53420
N          2.02430       -1.40960       -3.55270
C          2.68390       -1.17710       -2.41440
C          2.07890       -0.72850       -1.24460
H          0.96850        1.98090        0.04780
H         -0.57050        1.96350       -0.82050
H         -0.55480        1.90820        0.95100
H          0.51060       -0.35200        0.89880
H         -1.02180       -0.36950        0.03410
H         -1.06310       -0.58820       -2.47120
H          0.17620       -1.38470       -4.46350
H          3.75560       -1.36300       -2.43630
H          2.67690       -0.56570       -0.35290
