18
gdb 9411	6.59471	0.73605	0.69268	2.9785	66.02	-0.2674	-0.0382	0.2292	1566.3752	0.151015	-422.078619	-422.069064	-422.06812	-422.113786	32.921
O         -0.01580        1.44890       -0.01450
C          0.05320        0.03190       -0.00780
C         -1.37240       -0.50370       -0.01680
C         -1.42800       -2.03280        0.01830
C         -2.87230       -2.55980       -0.07090
O         -3.49220       -2.16710       -1.26470
C         -2.89260       -4.06810        0.06060
O         -3.37900       -4.77690       -0.78740
H          0.88120        1.79450       -0.03530
H          0.59690       -0.34670       -0.88910
H          0.58690       -0.33710        0.88460
H         -1.90700       -0.08880        0.84680
H         -1.88490       -0.14130       -0.91280
H         -0.85910       -2.45100       -0.82200
H         -0.96660       -2.40870        0.94190
H         -3.43230       -2.16510        0.79860
H         -3.77550       -2.98930       -1.69500
H         -2.43160       -4.48840        0.97830
