17
gdb 17757	2.9065	2.79457	1.84835	1.7591	71.23	-0.2063	0.0762	0.2825	786.5039	0.141045	-326.61786	-326.610701	-326.609757	-326.648649	28.092
C         -0.06440        1.49480        0.04630
C          0.11310        0.01660       -0.01480
C          0.29150       -0.97380       -1.19940
C         -0.59970       -1.92980       -0.45470
C          0.88520       -2.00060       -0.22510
C          0.69110       -0.98280        0.93360
C          1.30160       -0.86750        2.28790
N         -0.80590       -0.95410        0.69920
H          0.83450        2.01780       -0.29950
H         -0.90670        1.81510       -0.57760
H         -0.27080        1.80840        1.07430
H          0.48170       -0.84810       -2.25620
H         -1.32630       -2.66230       -0.78380
H          1.60250       -2.78620       -0.41710
H          2.37200       -0.64090        2.22340
H          0.81440       -0.06840        2.85510
H          1.18360       -1.79950        2.85230
