17
gdb 18763	4.01692	2.23288	1.74226	2.2961	67.46	-0.2178	0.0654	0.2833	781.5962	0.143791	-363.785461	-363.779143	-363.778198	-363.815746	25.2
C         -0.02760        1.30650       -0.38160
C          1.41200        1.57210        0.14280
C          1.28240        0.23350        0.86020
C          2.23610       -0.90420        1.19820
O          1.42040       -1.27290        2.34270
C          0.57400       -0.11170        2.19430
C         -0.70760       -0.37670        1.37190
N          0.03050       -0.11990        0.08790
H         -0.79760        1.90120        0.12520
H         -0.17630        1.39390       -1.46120
H          2.16600        1.55190       -0.64880
H          1.57590        2.45730        0.76090
H          2.30770       -1.70510        0.45400
H          3.24150       -0.59130        1.51170
H          0.52870        0.48990        3.10680
H         -1.09370       -1.39680        1.45010
H         -1.52280        0.33420        1.55410
