16
gdb 16761	5.51142	1.47558	1.27316	3.7813	65.37	-0.2269	0.0214	0.2483	948.8368	0.131893	-379.911906	-379.904724	-379.90378	-379.943311	27.41
O          0.07420        1.40390        0.00490
C          0.02770        0.01290       -0.16030
C         -1.38290       -0.49750       -0.05330
N         -2.38600        0.30750       -0.01770
C         -3.58090       -0.48900        0.06300
C         -3.88960       -1.41190       -1.09830
C         -3.12200       -1.95650        0.07400
N         -1.68500       -1.84590       -0.03890
H         -0.85220        1.69280        0.00210
H          0.43950       -0.28850       -1.13800
H          0.65200       -0.47960        0.60330
H         -4.39530       -0.08600        0.65420
H         -4.92040       -1.73460       -1.19440
H         -3.36340       -1.25740       -2.03470
H         -3.51350       -2.74700        0.70230
H         -1.08500       -2.49740        0.44300
