21
gdb 12005	3.12214	1.95181	1.71506	1.5086	76.86	-0.2261	0.0786	0.3047	900.9191	0.189789	-329.11961	-329.111764	-329.110819	-329.150958	31.593
C          0.02100        1.54430       -0.00610
C          0.01150        0.01020       -0.00900
C         -1.44010       -0.50510       -0.01680
C          0.81040       -0.58920       -1.19950
C          1.37490       -1.91950       -0.65020
N          1.50720       -1.79110        0.81490
C          2.22460       -0.57390        1.22320
C          0.73970       -0.58890        1.19690
H          1.04280        1.93590        0.02210
H         -0.46830        1.94190       -0.90240
H         -0.51390        1.94180        0.86370
H         -1.98270       -0.12720       -0.89000
H         -1.47740       -1.59890       -0.04250
H         -1.97820       -0.17610        0.87910
H          0.18330       -0.73930       -2.08290
H          1.61650        0.08880       -1.49670
H          0.68100       -2.74560       -0.84050
H          2.33720       -2.19300       -1.09470
H          2.74860       -0.65610        2.17110
H          2.75680        0.00100        0.46880
H          0.19020       -0.64700        2.13410
