15
gdb 21963	6.94065	1.07704	1.00547	5.699	61.73	-0.2499	0.0162	0.2661	1121.1384	0.120315	-395.982031	-395.974421	-395.973477	-396.01507	26.304
O         -0.07390        1.43600        0.01070
C          0.04150        0.02770        0.00230
C         -1.38770       -0.51860        0.01180
N         -1.42230       -1.97070        0.00460
C         -1.41440       -2.81050       -1.07470
N         -1.39510       -4.06250       -0.69720
N         -1.38550       -4.06960        0.68450
C         -1.39950       -2.82150        1.07500
H          0.80870        1.81720        0.00520
H          0.56680       -0.34140       -0.89190
H          0.58210       -0.35070        0.88350
H         -1.91130       -0.15430        0.89950
H         -1.92660       -0.14500       -0.86270
H         -1.43280       -2.45460       -2.09360
H         -1.40360       -2.47610        2.09770
