17
gdb 5616	3.22324	1.80115	1.25873	1.7779	70.71	-0.1857	0.0514	0.2371	977.1447	0.142585	-363.89788	-363.889565	-363.888621	-363.930582	30.793
C          0.00060        1.58150       -0.11830
C         -0.03040        0.04840        0.02590
C         -1.41800       -0.52390        0.03570
C         -2.11890       -1.02370        1.11460
N         -3.36000       -1.40470        0.68820
C         -3.48690       -1.17110       -0.66540
C         -2.29820       -0.62420       -1.08560
O         -2.04140       -0.23630       -2.37320
H          1.02860        1.95740       -0.14970
H         -0.50690        1.90250       -1.03410
H         -0.51480        2.05730        0.72140
H          0.55890       -0.39950       -0.78900
H          0.48680       -0.24090        0.94750
H         -1.82170       -1.13450        2.14550
H         -4.07050       -1.81300        1.26720
H         -4.38730       -1.40500       -1.20700
H         -1.09980       -0.05870       -2.45280
