13
gdb 11144	4.89054	1.48023	1.26541	3.8073	65.98	-0.2505	-0.0357	0.2148	921.3268	0.095656	-361.467361	-361.460299	-361.459355	-361.49884	26.268
O         -0.01490       -0.06380        0.00840
C          0.01830        1.14560        0.03710
N         -1.07330        1.99530        0.07040
C         -0.70840        3.39850       -0.00530
C          0.81160        3.32060        0.00950
C          1.20910        2.05160        0.04980
C         -1.23580        4.08580       -1.18630
C         -1.68230        4.65890       -2.14290
H         -2.00390        1.66320       -0.12050
H         -1.05230        3.93830        0.89170
H          1.41670        4.21660       -0.00750
H          2.21880        1.66770        0.07440
H         -2.07280        5.15970       -2.99450
