15
gdb 20215	3.69826	3.21013	2.23534	1.5256	67.66	-0.2241	0.0123	0.2364	645.9993	0.121816	-325.460862	-325.455712	-325.454767	-325.489606	22.478
C         -0.03060        1.52100       -0.00010
C          1.12550        2.19480        0.01940
C          2.36000        1.41370        0.06670
C          2.44840        0.10670        0.79530
C          1.14420       -0.68870        0.79970
C          0.05800        0.06290        0.00800
C          1.21680       -0.64790       -0.69440
N          2.51920        0.09780       -0.69280
H         -0.99920        2.00510       -0.04710
H          1.18770        3.27600       -0.01200
H          3.29500        1.96270        0.01520
H          3.30830       -0.15170        1.40430
H          0.90300       -1.49260        1.48120
H         -0.86790       -0.50070       -0.04840
H          1.05570       -1.39260       -1.46200
