20
gdb 7688	3.39643	1.70598	1.51106	1.4099	75.22	-0.2469	0.0728	0.3197	950.7577	0.176378	-348.977427	-348.969075	-348.968131	-349.009348	32.7
C         -0.04100        1.55580       -0.03410
C          0.06300        0.04160        0.03490
C         -1.18080       -0.65720       -0.49730
C          1.33620       -0.71760       -0.23200
C          2.57480        0.02140        0.28390
C          1.96820       -0.05360        1.73060
O          1.75940        1.13180        2.47280
C          0.70840       -0.70690        1.18010
H          0.80590        2.05950        0.42950
H         -0.12420        1.88700       -1.07670
H         -0.94100        1.89410        0.49200
H         -1.36950       -0.37540       -1.53960
H         -1.08160       -1.74670       -0.45780
H         -2.06550       -0.37910        0.08660
H          1.36310       -1.54140       -0.93590
H          3.50030       -0.55140        0.18830
H          2.73970        1.02610       -0.11590
H          2.53290       -0.78240        2.32810
H          2.61170        1.42920        2.80720
H          0.17010       -1.49720        1.69180
