10
gdb 893	7.14769	2.32787	1.76012	5.5589	44.88	-0.2178	0.0334	0.2512	639.068	0.067459	-396.491525	-396.485743	-396.484799	-396.521021	21.033
N          0.12740        1.37170        0.17870
C         -0.05520        0.01320        0.03810
C         -1.10810       -0.80400       -0.04610
O         -0.63430       -2.12120       -0.04010
C          0.71610       -2.07200        0.02050
O          1.46680       -2.99310        0.02300
O          1.09320       -0.74430        0.07730
H          0.92680        1.71870       -0.33750
H         -0.70240        1.91130       -0.02520
H         -2.17030       -0.65890       -0.09750
