11
gdb 2623	15.76239	0.86651	0.84311	2.2464	59.31	-0.2734	-0.0722	0.2012	1229.3295	0.074984	-343.235457	-343.227698	-343.226754	-343.269283	24.12
O          0.07410       -0.16760        0.09200
C          0.04720        0.99350       -0.20390
C          1.27400        1.91080       -0.10860
C          1.32440        2.89880       -1.17000
C          1.34300        3.70350       -2.07030
C          1.34490        4.66820       -3.14220
O          2.33820        5.20380       -3.57540
H         -0.87870        1.49860       -0.55250
H          1.20750        2.42500        0.86280
H          2.17510        1.29000       -0.07750
H          0.33940        4.89030       -3.55300
