18
gdb 17551	3.18352	2.11996	1.63411	1.576	71.91	-0.2457	0.091	0.3367	859.1431	0.153163	-347.757642	-347.750167	-347.749222	-347.788981	29.124
C         -0.03740        1.53680       -0.03220
C          0.02800        0.03830       -0.00110
C         -0.85470       -0.84060        0.85200
C          0.63600       -0.93970        1.01990
C          1.23080       -1.80020       -0.10700
C          0.60210       -0.82050       -1.11520
C          0.18350       -0.97790       -2.50880
O          1.37580       -0.25150       -2.15700
H          0.89530        1.96060       -0.41660
H         -0.85180        1.88800       -0.67730
H         -0.21400        1.94190        0.96940
H         -1.38350       -0.31950        1.64470
H         -1.41520       -1.66460        0.41460
H          1.12620       -0.71450        1.95910
H          2.32100       -1.74850       -0.16390
H          0.91450       -2.84800       -0.14540
H          0.35330       -1.92150       -3.02630
H         -0.62990       -0.37200       -2.90680
