14
gdb 13832	4.74374	1.59796	1.21347	3.3574	59.62	-0.2554	-0.0345	0.2209	939.5537	0.108503	-415.905956	-415.89839	-415.897446	-415.938663	26.403
N         -0.08050        1.29500        0.13870
C          0.05100       -0.04530       -0.01660
O          1.09910       -0.64700       -0.11080
C         -1.29260       -0.74210       -0.06220
N         -2.41350       -0.14640        0.03190
C         -3.44440       -1.19220       -0.06060
C         -2.64040       -2.50960       -0.22820
O         -1.25760       -2.07900       -0.21330
H          0.74690        1.86480        0.18130
H         -0.99880        1.70240        0.20620
H         -4.06300       -1.18570        0.84270
H         -4.10550       -0.98880       -0.90930
H         -2.78300       -3.21860        0.59120
H         -2.82590       -3.01980       -1.17680
