10
gdb 21422	4.09515	2.15366	1.4114	3.243	53.82	-0.2893	-0.106	0.1833	768.0686	0.061051	-446.767404	-446.761197	-446.760253	-446.798442	22.012
N         -0.08840        1.31810        0.29840
C         -0.00020        0.11270       -0.04420
N         -1.12490       -0.70220       -0.08910
N         -1.15530       -1.98960       -0.43550
N         -0.09240       -2.58550       -0.76570
C          1.14360       -1.88520       -0.76970
O          2.17400       -2.39160       -1.07050
O          1.14270       -0.53710       -0.40160
H          0.81930        1.77840        0.28080
H         -2.01630       -0.29990        0.16120
