17
gdb 1140	4.55793	2.06467	1.86807	0.459	60.22	-0.2499	0.0765	0.3264	750.1018	0.146823	-346.843297	-346.835676	-346.834732	-346.87426	29.349
C          0.44730        1.33990        0.09500
C         -0.07130       -0.08820       -0.02280
O         -1.47230       -0.11680       -0.22530
C          0.78400       -0.99040       -0.97350
C          1.48550       -1.58890        0.26620
O          2.73750       -0.94530        0.44950
C          0.34270       -1.01510        1.15040
H          1.52150        1.34210        0.29460
H          0.27750        1.89100       -0.83950
H         -0.06900        1.86670        0.90440
H         -1.68760        0.51880       -0.91650
H          0.14840       -1.72280       -1.47610
H          1.44100       -0.50240       -1.69740
H          1.60470       -2.67940        0.28060
H          3.04910       -1.15530        1.33610
H          0.63270       -0.54100        2.09280
H         -0.43940       -1.75480        1.33870
