17
gdb 17341	3.46015	2.14836	1.80183	1.3027	66.73	-0.2316	0.0721	0.3038	792.7597	0.143977	-363.823487	-363.816901	-363.815956	-363.853667	27.275
O         -0.10490        1.42310        0.09860
C         -0.03760        0.02920        0.05860
C         -0.31370       -0.73300       -1.20970
C         -1.29710       -0.79350       -0.05130
C         -1.23440       -1.94640        0.95680
C          0.12610       -1.82960        1.64370
N          1.28520       -2.01280        0.74360
C          0.84240       -0.64720        1.10050
H          0.61600        1.76940       -0.43840
H         -0.63570       -0.14130       -2.06080
H          0.30080       -1.59610       -1.43530
H         -2.24680       -0.29190       -0.19940
H         -2.02570       -1.82220        1.70430
H         -1.37170       -2.92900        0.49280
H          0.22480       -2.14150        2.67910
H          2.10290       -2.25930        1.29630
H          1.48020       -0.01170        1.70540
