17
gdb 19951	3.8772	1.50301	1.149	2.4827	69.62	-0.2407	-0.0234	0.2173	1035.8099	0.142108	-363.837603	-363.829956	-363.829011	-363.870204	28.282
O         -0.84930        0.14660        0.69840
C         -0.46020        1.22960        0.38410
C         -1.11050        2.60130        0.13970
N          0.25330        3.18880        0.15460
C          0.92560        1.85660        0.10060
C          2.04290        1.63060        1.07830
C          2.96590        0.45160        0.89620
C          3.47890        1.84800        0.66170
H         -1.64050        2.63250       -0.82350
H         -1.78190        2.97420        0.92080
H          0.45860        3.79300       -0.63190
H          1.25220        1.56330       -0.91170
H          1.79020        1.90230        2.09850
H          3.29100       -0.08010        1.78280
H          2.80880       -0.18620        0.03280
H          3.67040        2.15530       -0.36140
H          4.15870        2.27890        1.38790
