17
gdb 9103	5.36066	0.98276	0.84348	1.1955	74.79	-0.2483	0.0291	0.2774	1343.9237	0.138331	-363.829897	-363.820116	-363.819172	-363.865546	33.188
C          0.05150        1.44990        0.06310
N          0.01940        0.00310        0.05800
C         -1.07960       -0.61790       -0.02960
C         -2.48660       -0.07570       -0.13940
O         -1.10260       -1.97480       -0.03380
C          0.17560       -2.61740        0.06580
C         -0.02570       -4.05780        0.04740
C         -0.15270       -5.25180        0.03530
H          0.67210        1.80300       -0.76910
H         -0.92760        1.94190       -0.01310
H          0.53410        1.79990        0.98350
H         -2.59350        0.54760       -1.03170
H         -3.19770       -0.89940       -0.19740
H         -2.73240        0.54340        0.72810
H          0.81480       -2.29360       -0.76360
H          0.67710       -2.29670        0.98610
H         -0.26840       -6.30730        0.02440
