14
gdb 21118	5.16761	1.5756	1.21668	0.4121	71.17	-0.2323	-0.0584	0.1738	941.0939	0.10739	-378.688103	-378.681027	-378.680083	-378.719829	25.565
C          0.03030        1.43470        0.10150
N          0.01980       -0.01820        0.04400
C          0.49430       -0.61350       -0.98880
C          0.50900       -2.05770       -1.09840
C          1.01660       -2.62760       -2.19920
O          1.53380       -1.94840       -3.25190
N          1.55700       -0.55890       -3.22500
C          1.07800        0.02420       -2.18380
H          1.04610        1.85420        0.05460
H         -0.55650        1.89600       -0.70660
H         -0.41140        1.75280        1.04890
H          0.11100       -2.66050       -0.29270
H          1.07530       -3.69430       -2.38100
H          1.13760        1.10610       -2.25020
