20
gdb 18400	3.18155	2.04164	1.40466	1.2168	74.47	-0.2354	0.0854	0.3209	928.7057	0.179936	-348.996889	-348.989792	-348.988848	-349.027832	28.703
C         -0.03800        1.55760        0.08130
C          1.28270        0.82840        0.01940
C          2.22860        0.76430        1.20700
C          2.71420       -0.65960        1.52020
O          1.77840       -1.43690        2.24550
C          0.64620       -1.90390        1.53400
C         -0.38750       -0.80990        1.22450
C         -0.01280        0.04880        0.02800
H         -0.30860        2.01770        1.02730
H         -0.37500        2.10800       -0.79060
H          1.79130        0.85950       -0.94110
H          3.10040        1.40200        1.01220
H          1.75420        1.15950        2.11240
H          3.00110       -1.17460        0.58750
H          3.60140       -0.61560        2.16130
H          0.95770       -2.40410        0.60120
H          0.19820       -2.66340        2.18410
H         -1.36110       -1.28260        1.04200
H         -0.50560       -0.20020        2.12750
H         -0.28790       -0.39170       -0.92720
