15
gdb 5630	3.26108	1.79582	1.16887	2.7751	63.19	-0.1946	0.0353	0.2299	968.0586	0.119372	-399.807343	-399.799394	-399.79845	-399.84004	28.743
N          0.06210        1.42330        0.14470
C          0.02530        0.02250        0.02110
C         -1.05320       -0.81020       -0.00750
O         -0.64450       -2.11500       -0.03580
C          0.71020       -2.10270       -0.03710
C          1.18620       -0.83060        0.00160
C          2.61360       -0.39500        0.04500
O          3.43970       -1.54590       -0.01640
H          0.71520        1.85060       -0.50220
H         -0.84760        1.84550        0.00560
H         -2.11720       -0.64390        0.00210
H          1.20190       -3.05940       -0.06400
H          2.82790        0.28890       -0.79690
H          2.79530        0.18340        0.96660
H          4.35320       -1.26370        0.08120
