24
gdb 6806	5.9807	0.65124	0.6112	0.9388	83.52	-0.2496	0.0843	0.3339	1919.5747	0.221086	-351.407679	-351.396826	-351.395882	-351.444251	37.98
C         -0.01480        1.43850        0.06480
O          0.01360        0.03590       -0.02080
C         -1.27310       -0.54350        0.01350
C         -1.13190       -2.05700       -0.07890
C         -2.48680       -2.77320       -0.06230
C         -2.40940       -4.31100       -0.03720
C         -3.80450       -4.91360        0.17710
C         -1.76190       -4.88750       -1.30430
H          1.01900        1.79170        0.03100
H         -0.57130        1.89020       -0.77260
H         -0.47660        1.78370        1.00420
H         -1.79500       -0.26130        0.94540
H         -1.88700       -0.16240       -0.82220
H         -0.57630       -2.29120       -0.99320
H         -0.51410       -2.40010        0.76040
H         -3.05220       -2.44050        0.81920
H         -3.07880       -2.46140       -0.93530
H         -1.78420       -4.59710        0.82150
H         -4.47430       -4.65470       -0.65190
H         -3.76080       -6.00610        0.23750
H         -4.26220       -4.54400        1.10090
H         -1.72610       -5.98130       -1.26220
H         -2.33690       -4.61000       -2.19640
H         -0.73780       -4.52980       -1.44300
