16
gdb 10018	2.89853	1.45691	0.97541	0.5708	75.78	-0.2369	-0.0148	0.222	1168.3825	0.130773	-376.108629	-376.100038	-376.099094	-376.141946	29.864
C         -0.25260        1.31270        0.27850
N         -0.01520       -0.10270        0.08250
C         -1.01770       -0.87130        0.12270
N         -0.90020       -2.25960       -0.05470
C          0.35660       -2.83390       -0.28520
N          0.49880       -4.08490       -0.44970
C         -2.04140       -3.07010       -0.00100
N         -3.19570       -2.58310        0.20610
H          0.10450        1.86770       -0.59650
H         -1.31090        1.56570        0.44550
H          0.32970        1.66540        1.13740
H         -2.05340       -0.56920        0.29240
H          1.13640       -2.07240       -0.29780
H          1.48000       -4.30710       -0.60330
H         -1.78440       -4.11770       -0.15690
H         -3.89150       -3.32600        0.20970
