17
gdb 7957	3.33701	1.76213	1.35256	2.9952	64.67	-0.2434	0.0259	0.2694	932.8377	0.142865	-401.049763	-401.041889	-401.040945	-401.081822	29.777
C         -0.08820        1.58520        0.04450
C          0.10320        0.07480        0.02970
N          0.97480       -0.38600       -1.04840
C          1.68320       -1.52780       -0.76040
O          2.35850       -2.16450       -1.53700
C          1.43230       -1.81740        0.72530
C          0.83780       -0.51020        1.27140
O          1.83400        0.36010        1.77970
H          0.86720        2.10070        0.16000
H         -0.56400        1.92680       -0.88050
H         -0.73290        1.87400        0.87990
H         -0.88430       -0.40930       -0.04220
H          0.85690       -0.10100       -2.00890
H          0.71590       -2.64450        0.79010
H          2.34320       -2.12120        1.24360
H          0.14150       -0.66390        2.09870
H          2.51480        0.46460        1.10480
