12
gdb 9004	7.01391	0.97565	0.8838	4.9798	53.53	-0.2723	-0.119	0.1533	1183.576	0.079754	-455.630383	-455.622102	-455.621158	-455.66457	26.643
O          0.21570        0.11240       -0.09790
C          0.35960        1.28390       -0.24620
O          0.52520        2.12700        0.80730
C          0.76210        3.48490        0.51170
C          2.15620        3.72660       -0.06020
O          2.86060        2.84260       -0.46600
C          2.60450        5.20780       -0.11790
O          3.66460        5.53260       -0.57120
H          0.34380        1.80740       -1.21960
H          0.02210        3.89150       -0.19740
H          0.63590        4.03800        1.44820
H          1.87930        5.94760        0.28890
