18
gdb 5974	3.62081	1.22614	1.13453	2.5076	70.74	-0.257	0.0389	0.2959	1137.5313	0.149812	-384.891978	-384.882278	-384.881333	-384.926066	35.039
C         -0.17340        1.36860       -0.10740
O         -0.07470       -0.03800       -0.08400
C          0.76000       -0.56220       -1.09800
C          0.63680       -2.09970       -1.02290
C          1.22390       -2.63760        0.29680
O         -0.74200       -2.44810       -1.12860
C          1.34240       -2.68060       -2.16930
C          1.95950       -3.13220       -3.09550
H          0.80530        1.84420        0.05520
H         -0.57960        1.73030       -1.06400
H         -0.84820        1.66150        0.70020
H          0.42520       -0.22090       -2.08840
H          1.80450       -0.24770       -0.95440
H          0.73720       -2.14150        1.14020
H          1.04550       -3.71280        0.36010
H          2.30090       -2.45380        0.35300
H         -1.20290       -1.81090       -0.56670
H          2.49150       -3.54360       -3.91750
