15
gdb 4929	4.794	1.50646	1.15728	2.8024	64.64	-0.1744	0.0496	0.224	993.6537	0.120157	-396.008312	-396.000349	-395.999405	-396.04073	28.775
C         -0.06640        1.40890        0.01190
O         -0.00950       -0.01070        0.02360
C         -1.19750       -0.65010        0.01100
C         -1.36830       -2.00680        0.02790
N         -2.75860       -2.17200        0.01810
C         -3.31300       -0.93620       -0.00980
N         -4.68950       -0.73700       -0.11300
N         -2.40020        0.01480       -0.00420
H          0.97110        1.74830        0.02430
H         -0.56990        1.78260       -0.88610
H         -0.59600        1.79600        0.88910
H         -0.68340       -2.83340        0.07430
H         -3.24970       -3.04180       -0.09350
H         -5.22110       -1.21540        0.60530
H         -4.88860        0.25490       -0.07640
