15
gdb 9069	6.33125	0.84513	0.78805	3.4051	63.19	-0.2909	-0.0553	0.2357	1351.7439	0.117005	-399.823287	-399.814727	-399.813783	-399.857201	29.447
O          0.00190        1.44480       -0.07320
C          0.01610        0.04630       -0.00780
C          0.67680       -0.56290       -1.25720
C         -0.03540       -0.08020       -2.53500
C          0.58220       -0.61060       -3.74710
N          1.08230       -1.04300       -4.69480
C          0.73250       -0.41740        1.24670
O          1.20550        0.37080        2.02810
H          0.47030        1.75150        0.72010
H         -1.01750       -0.34340        0.05980
H          1.72850       -0.26050       -1.29250
H          0.64620       -1.65650       -1.20100
H         -1.09020       -0.37940       -2.51930
H         -0.01430        1.01320       -2.56600
H          0.79940       -1.51260        1.40480
