17
gdb 7081	3.05644	1.1619	0.89108	3.4488	68.11	-0.252	-0.0283	0.2237	1265.5039	0.139114	-401.007398	-400.998071	-400.997127	-401.042935	31.445
C         -0.10360        1.56230        0.00610
C         -0.01170        0.03930       -0.02290
C          0.74700       -0.52400        1.18450
C          0.93660       -2.02660        1.11960
O          2.00250       -2.57530        1.23780
O         -1.32630       -0.54020        0.01770
C         -1.98120       -0.67380       -1.15390
N         -3.18650       -1.04500       -1.16380
H          0.89520        2.00820       -0.01690
H         -0.66360        1.93310       -0.85760
H         -0.61570        1.89400        0.91410
H          0.48740       -0.28270       -0.94880
H          1.72920       -0.05310        1.27330
H          0.16430       -0.29040        2.08600
H          0.00360       -2.60530        0.95310
H         -1.35870       -0.44940       -2.03180
H         -3.51850       -1.12380       -2.12270
