15
gdb 6594	6.08868	1.36311	1.36193	4.9278	67.43	-0.2606	-0.0031	0.2575	934.2847	0.117956	-362.614035	-362.606812	-362.605868	-362.645227	27.395
C         -0.14390        1.40770        0.01200
C          0.08310       -0.06770       -0.00260
C          0.67740       -0.97550       -1.11640
C          0.05130       -1.86530       -0.01330
C          0.72690       -0.98950        1.07150
O         -1.11820       -0.96660        0.01880
C         -0.16450       -3.29200       -0.01760
N         -0.30060       -4.43950       -0.02180
H          0.81390        1.93670       -0.00580
H         -0.72620        1.71400       -0.86180
H         -0.68690        1.70240        0.91460
H          0.13150       -0.97280       -2.05980
H          1.76230       -1.00410       -1.23890
H          1.81620       -1.01930        1.14450
H          0.22420       -0.99900        2.03860
