14
gdb 5215	7.86692	1.201	1.04244	2.5893	75.78	-0.1829	-0.0069	0.1759	1069.2094	0.108525	-378.758804	-378.751664	-378.75072	-378.790302	26.529
N         -0.04440        1.35040       -0.17170
C         -0.09260       -0.01250       -0.22060
N         -1.04450       -0.66950        0.33120
C         -1.11360       -2.02810        0.21050
C         -2.02050       -2.91260        0.72350
C         -1.61410       -4.21490        0.29110
C         -0.49390       -4.03710       -0.45410
O         -0.16830       -2.71340       -0.51810
H          0.83670        1.80700       -0.33570
H         -0.67030        1.80180        0.47830
H          0.71440       -0.47210       -0.79690
H         -2.86880       -2.64950        1.33400
H         -2.09540       -5.15610        0.50650
H          0.16330       -4.70540       -0.98540
