13
gdb 1840	6.66772	2.06592	1.6088	5.3163	57.16	-0.2647	-0.038	0.2268	736.1728	0.102151	-344.512144	-344.505822	-344.504878	-344.542367	22.714
C         -0.02940        1.48510        0.06410
C         -0.00150       -0.00190       -0.03960
C         -0.04430       -0.78860       -1.11780
C          0.01140       -2.20570       -0.69890
O         -0.00250       -3.20970       -1.35170
O          0.08940       -2.22480        0.67880
C          0.08690       -0.89230        1.17370
H          0.87130        1.85960        0.56540
H         -0.09550        1.95460       -0.91950
H         -0.88430        1.81970        0.66430
H         -0.10930       -0.50120       -2.15710
H          1.00390       -0.71650        1.75200
H         -0.76640       -0.75670        1.85150
