16
gdb 7411	3.02077	1.50618	1.40303	3.08	61.76	-0.2401	0.0085	0.2486	965.1785	0.130093	-417.13688	-417.127831	-417.126887	-417.171041	32.182
C         -1.05120        1.37780       -1.24350
C         -0.21250        0.50300       -0.28560
C         -1.11230       -0.55430        0.35120
N         -1.32890       -0.41100        1.68350
O         -1.62870       -1.45700       -0.29430
C          0.98810       -0.09640       -1.05120
N          0.69290       -1.16820       -1.82760
O          2.08450        0.42660       -0.98820
H         -0.40650        2.10760       -1.73950
H         -1.53320        0.75690       -2.00170
H         -1.82840        1.91810       -0.69450
H          0.23720        1.13940        0.48030
H         -0.87610        0.30080        2.22850
H         -1.91460       -1.08520        2.14950
H         -0.19400       -1.63840       -1.69840
H          1.45160       -1.62240       -2.30920
