17
gdb 11802	3.5269	1.75912	1.34619	3.6133	69.55	-0.2387	0.0364	0.2751	938.6416	0.141408	-363.87197	-363.86397	-363.863026	-363.904303	29.86
C         -0.09150        1.56880       -0.01470
C         -0.00300        0.05020        0.02970
C          1.12690       -0.59020       -0.82660
O          1.43310       -0.59610       -1.98880
N          1.68590       -1.16160        0.29320
C          0.71640       -0.61510        1.22430
C          1.01060       -0.06180        2.58110
C          0.14900       -1.30960        2.41850
H          0.87470        2.02880        0.21370
H         -0.39460        1.89710       -1.01310
H         -0.82710        1.94610        0.70340
H         -0.97220       -0.41060       -0.18450
H          2.50840       -1.73280        0.42010
H          2.01090       -0.18940        2.98260
H          0.52790        0.86390        2.87780
H         -0.91690       -1.22890        2.60640
H          0.58120       -2.26080        2.71280
