11
gdb 23872	2.99681	1.76701	1.41311	3.5219	44.	-0.29	0.0041	0.2941	835.892	0.06868	-525.089355	-525.081705	-525.080761	-525.121823	26.601
N         -0.05400        1.49320        0.09550
C         -0.02460        0.04370       -0.00180
C         -1.38060       -0.50780        0.12990
N         -2.44770       -0.93580        0.22730
C          0.62240       -0.48650       -1.30020
F          1.88050       -0.02980       -1.38170
F          0.65870       -1.81870       -1.32420
F         -0.04130       -0.05890       -2.37850
H          0.89340        1.85330        0.03930
H         -0.57960        1.88490       -0.68040
H          0.58340       -0.35340        0.81970
