11
gdb 3676	6.2664	2.73535	1.92692	5.0522	53.66	-0.2565	-0.0879	0.1686	617.7473	0.077777	-335.56643	-335.560367	-335.559423	-335.596868	20.659
C         -0.02130        1.51330        0.03070
C         -0.00030        0.01630       -0.01100
C          0.07170       -0.72050       -1.19800
N          0.08790       -2.04040       -1.18170
N          0.03330       -2.65750        0.00250
N         -0.03460       -1.97990        1.12070
N         -0.05280       -0.64670        1.14030
H          0.88350        1.92610       -0.42820
H         -0.87710        1.90450       -0.52970
H         -0.08480        1.85210        1.06550
H          0.11700       -0.24480       -2.17480
