14
gdb 12979	2.89214	2.75637	1.66826	2.8748	63.37	-0.2502	-0.0624	0.1878	760.7215	0.10748	-382.551181	-382.544577	-382.543632	-382.581614	25.808
O          0.03840        1.38840       -0.08040
C         -0.04380        0.01110       -0.00380
C         -0.44200       -0.80900       -1.21870
C         -1.31840       -0.77460        0.03600
C         -1.04580       -1.90960        0.97250
C          0.20300       -1.87930        1.46840
C          0.89030       -0.65940        0.98160
O          1.95450       -0.18360        1.31410
H          0.92700        1.60500        0.23920
H         -0.77740       -0.21400       -2.06240
H          0.07590       -1.73000       -1.46480
H         -2.29580       -0.31170       -0.01570
H         -1.77480       -2.69000        1.16230
H          0.66500       -2.59840        2.13080
