20
gdb 5874	4.02179	1.05112	1.04614	3.9496	72.65	-0.2777	0.0091	0.2869	1235.6048	0.17384	-386.176398	-386.166605	-386.165661	-386.211202	34.984
C         -0.07350        1.59090        0.06310
C          0.01390        0.06210       -0.09040
C          0.92590       -0.52590        1.00000
C         -1.39130       -0.55720        0.01210
C          0.56530       -0.28730       -1.48220
O          1.86600        0.28110       -1.68790
C          2.89300       -0.54010       -1.96970
O          4.00540       -0.14720       -2.15390
H          0.90970        2.05390       -0.05390
H         -0.74310        2.02570       -0.68740
H         -0.46210        1.85650        1.05150
H          0.52420       -0.30700        1.99440
H          1.00700       -1.61520        0.90800
H          1.93320       -0.10320        0.94740
H         -2.05820       -0.16920       -0.76590
H         -1.35870       -1.64840       -0.08400
H         -1.84190       -0.32310        0.98160
H          0.61470       -1.37700       -1.61200
H         -0.08600        0.11970       -2.26360
H          2.59010       -1.60530       -2.01220
