18
gdb 1627	4.36429	1.60886	1.59531	3.9248	65.66	-0.2388	0.0343	0.2731	890.2583	0.158641	-327.010026	-327.001322	-327.000378	-327.043349	30.429
C         -0.00900        1.56020       -0.02000
C         -0.03500        0.02630        0.05110
C          0.78560       -0.50190        1.23710
N         -1.40080       -0.50120        0.04880
C         -2.31610       -0.17640        1.13130
C         -1.83780       -1.30460       -0.96420
O         -2.94530       -1.79210       -1.06000
H          1.02040        1.91300       -0.13460
H         -0.59350        1.92140       -0.87090
H         -0.41200        2.01350        0.89100
H          0.42310       -0.35760       -0.86810
H          0.76570       -1.59490        1.26930
H          1.82720       -0.17910        1.14670
H          0.40650       -0.12330        2.19160
H         -2.50720        0.90080        1.18530
H         -3.25320       -0.69430        0.92690
H         -1.92490       -0.50950        2.09820
H         -1.04600       -1.47300       -1.72090
