19
gdb 2947	4.92537	1.92998	1.65775	0.9944	67.35	-0.2442	0.0835	0.3277	835.5516	0.172772	-310.927319	-310.919791	-310.918846	-310.959816	27.409
C         -0.50050        0.95770       -0.07240
O          0.07050       -0.31930        0.06630
C          0.95210       -0.44560        1.17790
C          0.18240       -0.60430        2.52160
C          0.23880       -2.11560        2.87890
C          0.74820       -2.81150        1.60250
C          1.70380       -1.77130        1.00130
H          0.27060        1.73770       -0.18120
H         -1.11550        0.94250       -0.97610
H         -1.14200        1.23270        0.77910
H          1.62990        0.42100        1.19280
H          0.62440        0.01140        3.31050
H         -0.84780       -0.26170        2.39190
H          0.94980       -2.27980        3.69660
H         -0.72620       -2.50300        3.21660
H          1.22460       -3.77520        1.80270
H         -0.07990       -2.98590        0.90730
H          1.95770       -1.94360       -0.04710
H          2.63600       -1.73820        1.57860
