16
gdb 6926	4.05774	1.21313	1.14085	4.1533	62.48	-0.2679	0.0012	0.2691	1074.2856	0.127359	-420.878287	-420.869628	-420.868684	-420.911745	30.881
C          0.00040        1.50650        0.31890
C          0.05470        0.00910        0.13130
O         -1.15690       -0.59130       -0.24270
C          1.33420       -0.65240       -0.35120
C          0.85970       -0.85540        1.05930
O          1.64880       -0.26170        2.07060
C          1.06130       -0.11890        3.28040
O          1.62560        0.37020        4.21100
H          0.94320        1.89390        0.71130
H         -0.20010        2.00600       -0.63610
H         -0.80270        1.77250        1.01380
H         -1.34690       -0.33600       -1.15270
H          1.25310       -1.49660       -1.02620
H          2.20750       -0.02390       -0.48650
H          0.43980       -1.82120        1.32410
H          0.02490       -0.50580        3.30200
