17
gdb 2045	4.2706	2.91806	2.21666	1.3896	64.29	-0.2543	0.0767	0.331	662.4966	0.148719	-309.665941	-309.659399	-309.658455	-309.695711	26.324
C         -0.14450        1.55410       -0.03600
C          0.01410        0.03840       -0.01110
O         -1.26680       -0.55200       -0.16340
C          1.20810       -0.65520       -0.76710
C          2.13960       -0.14880        0.37240
C          0.85950       -0.67020        1.08910
C          0.94470       -1.90180        0.13210
H          0.78760        2.10060        0.10870
H         -0.55810        1.87050       -1.00280
H         -0.85070        1.86210        0.74120
H         -1.69780       -0.13460       -0.91580
H          1.41050       -0.64160       -1.84040
H          3.03770       -0.74790        0.53830
H          2.37230        0.91490        0.42660
H          0.65550       -0.67660        2.16140
H          0.02590       -2.45550       -0.04400
H          1.80270       -2.56020        0.28780
