13
gdb 4388	3.81554	2.03206	1.33688	5.9386	64.09	-0.2565	-0.0733	0.1832	859.0955	0.095683	-398.663579	-398.656725	-398.655781	-398.69498	24.735
C          0.05860        1.49010        0.02260
C         -0.07100        0.00390        0.00580
C         -1.21770       -0.70570       -0.15650
C         -1.09540       -2.12150       -0.13760
N          0.01970       -2.77460        0.02140
C          1.18740       -2.06470        0.18660
O          2.28310       -2.50830        0.34260
O          1.09180       -0.62740        0.17170
H          0.73940        1.81600       -0.77060
H         -0.91190        1.96870       -0.11570
H          0.49160        1.81790        0.97330
H         -2.17080       -0.21550       -0.29250
H         -1.99130       -2.73020       -0.26430
