20
gdb 10527	2.91985	1.34898	1.073	0.4191	71.27	-0.2472	0.0809	0.3281	1168.8598	0.174941	-386.10854	-386.099068	-386.098123	-386.142947	34.117
C          0.70150        0.20160       -1.09520
O         -0.05050        0.01810        0.08920
C          0.61090       -0.70930        1.09440
C          1.73370        0.02940        1.79570
C          1.26140        1.31890        2.45980
O          2.39180        1.93000        3.06610
C         -0.30350       -1.59920        1.88320
C          0.68640       -2.20500        0.90670
H          1.04690       -0.75660       -1.50820
H          0.03850        0.68270       -1.81840
H          1.57660        0.84790       -0.94030
H          2.17720       -0.62200        2.55640
H          2.53870        0.27270        1.09190
H          0.80340        1.97410        1.70470
H          0.48340        1.08610        3.20400
H          2.10720        2.75950        3.46020
H         -0.12200       -1.71450        2.94630
H         -1.34760       -1.59910        1.59320
H          0.28120       -2.60750       -0.01500
H          1.54590       -2.73920        1.29700
