13
gdb 2964	4.1392	2.59897	1.67523	2.9603	57.39	-0.2549	-0.0675	0.1874	711.3365	0.101465	-340.611683	-340.604921	-340.603977	-340.642625	23.609
N          0.18150        1.33780       -0.66300
C          0.10500        0.21760       -0.05220
C         -1.27590       -0.38440        0.03890
O         -1.51960       -1.46490        0.51040
N          1.11130       -0.46680        0.60810
C          1.48910       -1.83790        0.32460
C          2.42840       -0.70300        0.04870
H          1.14540        1.68060       -0.69040
H         -2.04710        0.27870       -0.39960
H          1.63740       -2.47310        1.19210
H          1.02730       -2.32590       -0.52850
H          2.58970       -0.42330       -0.99080
H          3.26620       -0.51330        0.71280
