11
gdb 890	6.90575	2.29329	1.72565	5.1829	48.82	-0.1911	0.0466	0.2378	659.6148	0.07952	-376.620836	-376.614507	-376.613563	-376.65086	22.864
N          0.12890        1.37200        0.17610
C         -0.06050        0.00690        0.04560
C         -1.13740       -0.79240       -0.02100
N         -0.62860       -2.10980       -0.00710
C          0.73540       -2.09950        0.03380
O          1.53380       -2.99600        0.03140
O          1.08610       -0.74610        0.07950
H          0.93120        1.70140       -0.34790
H         -0.69560        1.90690       -0.06110
H         -2.18830       -0.57160       -0.05900
H         -1.15500       -2.96210       -0.06750
