20
gdb 8366	5.15653	1.10573	1.08106	1.29	75.67	-0.2632	0.0804	0.3436	1169.1415	0.177751	-348.951645	-348.943651	-348.942707	-348.984488	30.332
O         -0.11510        1.44180        0.01050
C          0.02240        0.02820        0.00200
C         -1.37740       -0.57570        0.01150
C         -1.37940       -2.08400        0.00410
C         -0.76470       -3.05280        1.06960
C         -1.40760       -3.97170       -0.00500
C         -2.63140       -3.01450        0.00900
C         -0.78100       -3.04220       -1.08010
H          0.76500        1.82910        0.00420
H          0.56910       -0.31350       -0.89150
H          0.58510       -0.32260        0.88200
H         -1.90910       -0.20790        0.89800
H         -1.92480       -0.19920       -0.86170
H          0.32660       -3.07630        1.14590
H         -1.23270       -3.04920        2.05870
H         -1.42510       -5.06200       -0.01030
H         -3.24120       -3.00650        0.91760
H         -3.25500       -2.99750       -0.89010
H         -1.26390       -3.02890       -2.06200
H          0.30900       -3.06490       -1.17320
