19
gdb 9273	4.3503	0.92065	0.79526	5.118	73.25	-0.2674	0.0415	0.3089	1423.3077	0.163513	-365.078063	-365.068356	-365.067412	-365.113248	33.504
C          0.05730        1.39430        0.07370
O         -0.11330        0.00860       -0.12250
C          0.65900       -0.55230       -1.17690
C          2.13580       -0.69570       -0.80090
C          0.02770       -1.90790       -1.49920
C         -1.45340       -1.77230       -1.90090
C         -2.07680       -3.06090       -2.18850
N         -2.55510       -4.08850       -2.41450
H          1.06370        1.65010        0.43350
H         -0.13320        1.96140       -0.85100
H         -0.66810        1.70180        0.83070
H          0.57620        0.10040       -2.06470
H          2.69670       -1.15550       -1.62060
H          2.59330        0.27500       -0.59170
H          2.24110       -1.32450        0.08860
H          0.59070       -2.38660       -2.30630
H          0.10630       -2.55550       -0.61950
H         -2.00090       -1.27870       -1.09310
H         -1.55060       -1.13480       -2.78800
