10
gdb 35	26.14564	4.2893	4.12773	2.6741	35.83	-0.25	-0.0205	0.2295	333.3276	0.084175	-193.075202	-193.070116	-193.069171	-193.102798	15.954
C          0.16880        1.52510       -0.15750
C         -0.18740        0.06190        0.14680
C          0.50920       -0.44000        1.39130
O          1.18190       -1.43570        1.45820
H          1.23130        1.63140       -0.39630
H         -0.40740        1.89430       -1.00970
H         -0.04930        2.17270        0.69860
H         -1.26910       -0.01670        0.32850
H          0.06280       -0.60250       -0.68470
H          0.35380        0.20660        2.28870
