16
gdb 8450	4.21607	1.80103	1.58252	2.3419	64.4	-0.2389	-0.0091	0.2298	825.7191	0.131315	-383.74875	-383.742079	-383.741135	-383.779238	26.842
O         -0.08130        1.39250        0.01660
C         -0.00570        0.00390        0.01570
C          0.32710       -0.83450        1.29230
C         -0.43690       -1.95370        0.50510
C         -1.33020       -0.79180       -0.05330
C          0.51030       -2.15530       -0.66790
O          0.90040       -3.17410       -1.16830
C          0.85160       -0.69720       -1.05940
H          0.80890        1.75100       -0.06650
H          1.37480       -1.00790        1.55450
H         -0.23900       -0.49510        2.16190
H         -0.84710       -2.83970        0.98200
H         -2.05300       -0.44830        0.68930
H         -1.80880       -0.92220       -1.02740
H          0.53950       -0.46850       -2.08290
H          1.92600       -0.50270       -0.96820
