15
gdb 17049	5.57758	1.36671	1.30905	1.9953	63.01	-0.2486	-0.0056	0.2431	950.1554	0.118382	-399.718553	-399.711298	-399.710354	-399.750386	26.363
C          0.18010        1.28370        0.17820
O         -0.31600        0.03400       -0.25760
C          0.44010       -0.53420       -1.26800
C          1.76570       -1.30030       -0.90040
N          0.86160       -2.34500       -0.24520
C          0.12690       -2.02430       -1.54980
C          1.53160       -2.11160       -2.19090
O          2.12770       -2.69320       -3.04430
H          1.16890        1.18790        0.64870
H          0.25650        2.00120       -0.65330
H         -0.52720        1.66860        0.91540
H          0.51480        0.12140       -2.14660
H          2.67760       -0.94250       -0.42780
H          1.29040       -3.27400       -0.28930
H         -0.82480       -2.48210       -1.80910
