17
gdb 16628	3.03151	2.29227	1.53162	1.8404	67.15	-0.2285	-0.025	0.2035	850.0809	0.142749	-363.86551	-363.858287	-363.857343	-363.896918	27.635
C          0.15920        1.63100        0.01480
C          0.10690        0.10310       -0.01250
C          0.79900       -0.60040       -1.16340
C          2.28380       -0.61830       -1.17180
N          1.55150       -1.79830       -0.69070
C          1.44500       -1.83430        0.77150
C          0.75030       -0.54320        1.22740
O          0.70760       -0.10960        2.34840
H          1.18820        1.99110       -0.07830
H         -0.42580        2.06180       -0.80260
H         -0.24190        1.99630        0.96410
H         -0.94740       -0.21350        0.00680
H          0.25810       -0.73050       -2.09600
H          2.82200       -0.76340       -2.10350
H          2.81060       -0.00510       -0.44070
H          0.82860       -2.69180        1.07100
H          2.42040       -1.94740        1.25360
