22
gdb 7824	2.96418	1.61131	1.12405	1.4645	78.04	-0.2575	0.0796	0.3372	1117.6243	0.201881	-350.235726	-350.22736	-350.226416	-350.267895	33.066
C         -0.01830        1.55450        0.02950
C          0.02310        0.02360        0.00450
C          0.70000       -0.50900       -1.27040
C          0.77040       -2.04230       -1.28720
C          1.46260       -2.58030       -0.02670
C          0.78110       -2.06560        1.24620
O          1.47460       -2.46340        2.42360
C          0.72130       -0.53930        1.25390
H          0.99480        1.97390        0.02990
H         -0.54240        1.95260       -0.84600
H         -0.53000        1.92430        0.92430
H         -1.01490       -0.34320        0.00560
H          0.16580       -0.14500       -2.15620
H          1.71800       -0.09750       -1.33050
H         -0.24770       -2.45160       -1.34700
H          1.29530       -2.39060       -2.18350
H          1.46560       -3.67860       -0.03090
H          2.51200       -2.25840       -0.00520
H         -0.25280       -2.45480        1.26980
H          1.55290       -3.42270        2.41030
H          1.75010       -0.15690        1.30780
H          0.21360       -0.20370        2.16520
