12
gdb 21451	6.02789	1.49216	1.19608	4.3025	59.18	-0.2323	-0.0364	0.196	909.9254	0.08514	-410.815982	-410.809406	-410.808462	-410.847069	23.775
N          0.18780        1.28040        0.00430
C          0.04500        0.01370        0.00120
N         -1.19140       -0.57950        0.01130
C         -2.39400        0.10050        0.02530
C         -2.71410        1.42440        0.03330
O         -4.05300        1.50730        0.04690
N         -4.55520        0.19900        0.04580
N         -3.57450       -0.60150        0.03420
H          1.17360        1.52770       -0.00450
H          0.85140       -0.72660       -0.00940
H         -1.25750       -1.58390        0.00810
H         -2.13100        2.32490        0.03110
