17
gdb 11724	4.88476	1.44757	1.25384	3.3943	71.32	-0.2222	-0.0215	0.2007	984.6133	0.141321	-363.825038	-363.817335	-363.816391	-363.856959	28.594
C         -0.20770        1.48290        0.04810
N          0.12920        0.07130        0.02650
C          1.19080       -0.40960       -0.90430
C          1.89690       -1.11070        0.25460
C          2.23600       -0.09630        1.33520
C          0.81020       -0.50140        1.17860
C          2.38580       -2.49080        0.25860
O          2.43060       -3.20360       -0.71680
H          0.65300        2.15240        0.22360
H         -0.66210        1.75950       -0.90850
H         -0.94590        1.66650        0.83560
H          0.80110       -1.09500       -1.66100
H          1.77470        0.38160       -1.39240
H          2.74240       -0.50610        2.20460
H          2.58470        0.88630        1.03000
H          0.24910       -0.98680        1.97100
H          2.72000       -2.85610        1.25790
