12
gdb 23753	3.42107	2.33187	1.38668	1.6829	59.07	-0.2374	-0.0261	0.2113	795.4322	0.085355	-422.688923	-422.682912	-422.681967	-422.71898	23.263
O          0.08420        1.37800       -0.07530
C          0.05650        0.02330       -0.06440
C          0.02210       -0.71080       -1.24090
C         -0.00510       -2.10360       -1.15940
C          0.00320       -2.70900        0.08960
N          0.03640       -2.00510        1.23240
C          0.06120       -0.70830        1.13060
F          0.09490        0.01420        2.26570
H          0.10530        1.68000        0.84140
H          0.01710       -0.18930       -2.19120
H         -0.03230       -2.70710       -2.05920
H         -0.01730       -3.78910        0.19180
