19
gdb 7955	3.32266	1.68924	1.27839	3.9352	71.43	-0.2348	0.0386	0.2734	998.1862	0.166526	-365.123696	-365.115575	-365.114631	-365.155929	31.044
C         -0.77740        1.28330       -0.01190
C          0.07000        0.01460       -0.05750
C          1.25570        0.04880       -1.03760
C          2.25930       -0.95310       -0.46000
O          3.23840       -1.41800       -1.00040
N          1.84010       -1.22410        0.81800
C          0.72610       -0.41260        1.29310
C          1.19220        0.73650        2.19580
H         -0.17860        2.16250        0.24610
H         -1.23560        1.47130       -0.98800
H         -1.58680        1.19940        0.72160
H         -0.57540       -0.82030       -0.35580
H          0.99420       -0.21360       -2.06450
H          1.73670        1.03460       -1.06760
H          2.44080       -1.74570        1.43810
H          0.02670       -1.03850        1.86100
H          1.86320        1.41770        1.66280
H          0.34260        1.31240        2.57490
H          1.73720        0.34110        3.05930
