20
gdb 7548	3.20713	1.21218	1.03094	2.0214	71.74	-0.2436	0.0738	0.3174	1226.9867	0.174512	-386.122945	-386.113389	-386.112445	-386.15707	35.283
C          0.05380        1.58360       -0.01640
C          0.22980        0.06320       -0.04870
C          0.50510       -0.53490        1.33730
C          0.66580       -2.04100        1.32090
O         -0.49030       -2.76140        0.97060
C          1.99960       -2.66230        0.93250
C          1.48810       -2.72830        2.36050
O          2.07770       -1.93800        3.35050
H          0.95320        2.07680        0.36870
H         -0.14520        1.98500       -1.01510
H         -0.78160        1.87060        0.63150
H         -0.67670       -0.39290       -0.46900
H          1.05180       -0.19960       -0.72750
H          1.40520       -0.08710        1.76950
H         -0.32350       -0.28800        2.01350
H         -0.62660       -2.65540        0.02300
H          1.98630       -3.57590        0.34810
H          2.82770       -1.98920        0.73430
H          1.10090       -3.68970        2.69590
H          2.94720       -2.30450        3.54160
