17
gdb 15226	2.32953	1.92144	1.34312	3.8377	68.6	-0.2736	0.0222	0.2958	974.1445	0.141713	-363.863541	-363.854866	-363.853921	-363.897008	31.02
C         -0.05530        1.56690        0.17000
C          0.00900        0.06900       -0.03790
C          0.55040       -0.58590       -1.27790
C          1.13230        0.18440       -2.44740
O          2.14010       -0.55090       -3.11830
C          1.32990       -0.69780        0.03550
C          2.57360        0.00700        0.15450
N          3.58370        0.57080        0.21500
H          0.84290        2.07740       -0.18350
H         -0.91790        1.99160       -0.35340
H         -0.16310        1.79590        1.23480
H         -0.80940       -0.46950        0.43250
H          0.07530       -1.51610       -1.57630
H          0.34310        0.36170       -3.18580
H          1.50270        1.16590       -2.12620
H          2.92280       -0.54960       -2.55620
H          1.32390       -1.65860        0.53850
