12
gdb 20689	7.25153	1.35159	1.14739	1.7962	65.03	-0.2684	-0.0448	0.2236	975.3579	0.082868	-377.497458	-377.490281	-377.489337	-377.529265	25.286
C          0.01030        1.47660       -0.07400
C         -0.06560       -0.00210        0.04380
N         -1.06430       -0.78630       -0.22380
C         -0.54350       -2.03150        0.07590
N          0.70060       -2.01440        0.50230
O          1.02150       -0.65920        0.48140
C         -1.27570       -3.23770       -0.05910
C         -1.90300       -4.25550       -0.17630
H          0.80530        1.76630       -0.76740
H         -0.94400        1.85600       -0.43810
H          0.23490        1.92830        0.89670
H         -2.45720       -5.15600       -0.27970
