15
gdb 901	6.88602	2.02282	1.58289	1.8575	64.76	-0.1719	0.0525	0.2244	773.113	0.126581	-304.724431	-304.71724	-304.716296	-304.755642	26.188
C          0.02590        1.44040        0.01600
N         -0.04660       -0.00180        0.00170
C         -0.06340       -0.79110       -1.11270
C         -0.03880       -2.11100       -0.71870
C          0.00280       -2.12500        0.70520
N         -0.04780       -3.27740        1.51610
C          0.00390       -0.80980        1.12300
H          1.03110        1.79730        0.27270
H         -0.23550        1.82320       -0.97270
H         -0.68270        1.85220        0.74180
H         -0.09010       -0.35020       -2.09700
H         -0.07240       -2.97180       -1.36940
H          0.46250       -4.04950        1.10560
H          0.31890       -3.11010        2.44470
H          0.02640       -0.38200        2.11270
