13
gdb 5169	6.44368	1.17083	1.08718	1.8919	60.75	-0.244	-0.0376	0.2064	1032.2852	0.095566	-398.636505	-398.62948	-398.628536	-398.669244	24.038
O         -0.50720        0.47430        0.63750
C          0.09530        0.93070       -0.29550
C          1.30160        1.86020       -0.15730
C          1.26900        2.99000       -1.12250
C          0.99940        4.31690       -1.04420
N          1.09540        4.88790       -2.30810
C          1.40590        3.89810       -3.07610
O          1.53170        2.70750       -2.44150
H         -0.18440        0.69530       -1.34580
H          1.33840        2.23000        0.86960
H          2.20000        1.25030       -0.32950
H          0.74930        4.90200       -0.17350
H          1.57660        3.89940       -4.14100
