17
gdb 4169	3.42444	1.43046	1.14733	1.3936	67.74	-0.2454	-0.0033	0.2421	1062.6336	0.141212	-400.935647	-400.92716	-400.926216	-400.969061	31.131
O          0.34870        0.88410        0.77780
C         -0.03250        0.00980       -0.26610
C         -1.47700       -0.45770       -0.15320
N         -2.47480        0.34230       -0.12370
O         -2.05930        1.69440       -0.21210
C         -1.74550       -1.91270       -0.03170
C         -2.16000       -2.48260        1.31960
C         -3.13510       -2.45170        0.17690
H         -0.26680        1.62630        0.73350
H          0.10470        0.47270       -1.25710
H          0.63550       -0.85380       -0.20890
H         -2.89450        2.16920       -0.15830
H         -1.05740       -2.52930       -0.60320
H         -1.73210       -3.43260        1.62000
H         -2.30130       -1.77080        2.12460
H         -3.93860       -1.72710        0.21540
H         -3.38370       -3.38730       -0.31120
