18
gdb 1484	3.11831	1.99408	1.42419	3.6266	65.37	-0.2483	0.0344	0.2828	915.0703	0.158888	-327.016183	-327.007455	-327.006511	-327.050161	30.371
C          0.06360        1.56640        0.20440
C          0.02850        0.04270        0.07050
C          0.75400       -0.70280        1.20360
C          0.57230       -2.22130        1.09720
N          2.17450       -0.35760        1.23720
C          2.79650        0.19640        2.31190
O          2.26280        0.49930        3.35840
H          1.09140        1.94130        0.20100
H         -0.47180        2.04500       -0.62110
H         -0.40200        1.89020        1.14100
H         -1.01180       -0.30400        0.05140
H          0.46480       -0.26100       -0.89210
H          0.36380       -0.35920        2.16600
H          1.07600       -2.73170        1.92250
H         -0.48910       -2.48620        1.12460
H          0.98590       -2.60320        0.15590
H          2.73980       -0.58620        0.43330
H          3.87830        0.34940        2.12180
