17
gdb 19644	4.99431	1.69623	1.59951	2.0932	70.28	-0.209	0.0687	0.2777	865.6929	0.142018	-326.603764	-326.596898	-326.595954	-326.634852	26.647
C          0.06090        1.52010       -0.16460
C         -0.03400        0.01240        0.10950
C         -1.43720       -0.50210        0.09790
C         -1.96890       -1.93430       -0.08080
C         -3.20830       -1.56210        0.76810
C         -2.70380       -0.17620        0.94550
N         -3.61860       -0.49220       -0.20960
C         -2.37910       -0.83790       -1.03440
H          1.10120        1.85830       -0.14220
H         -0.35750        1.76760       -1.14510
H         -0.49280        2.09300        0.58650
H          0.54430       -0.53860       -0.64390
H          0.43410       -0.21680        1.07650
H         -1.41700       -2.84980       -0.24180
H         -3.93220       -2.14350        1.32690
H         -2.94010        0.59100        1.67420
H         -2.30440       -0.73580       -2.11030
