14
gdb 12159	3.85425	1.49362	1.16115	3.5163	65.32	-0.2536	0.0071	0.2607	981.6638	0.108236	-374.894672	-374.88677	-374.885826	-374.927222	28.225
N          0.09730        1.27080        0.30350
C          0.07760       -0.10510       -0.10160
C         -1.34040       -0.79300       -0.28250
N         -0.84230       -1.31290       -1.56340
C          0.28530       -0.49060       -1.57800
N          1.13390       -0.09760       -2.42430
C         -1.74580       -1.80280        0.69050
N         -2.06120       -2.59480        1.47090
H          0.98900        1.51010        0.71950
H         -0.03000        1.88430       -0.49510
H          0.69970       -0.70520        0.56520
H         -2.12460       -0.03330       -0.37320
H         -1.41740       -1.57240       -2.35260
H          0.96410       -0.47790       -3.35680
