18
gdb 4489	3.56746	1.65923	1.15302	1.4918	77.39	-0.1697	0.0517	0.2213	1055.0817	0.153892	-344.028968	-344.019823	-344.018879	-344.062837	32.674
C          0.03390        1.47800        0.06290
C          0.02240       -0.01110       -0.04270
C         -0.04270       -0.84040       -1.14050
C         -0.03170       -2.18980       -0.67360
N         -0.11880       -3.38120       -1.44600
C          0.03760       -2.15510        0.70360
C          0.05760       -3.26880        1.69340
N          0.08590       -0.82140        1.06500
H          0.94530        1.85490        0.54510
H         -0.01630        1.92140       -0.93440
H         -0.81910        1.86250        0.63730
H         -0.09400       -0.51670       -2.17050
H         -0.37380       -3.16780       -2.40300
H          0.76590       -3.87720       -1.47810
H          1.05310       -3.45440        2.12070
H         -0.62480       -3.08450        2.53280
H         -0.26560       -4.18830        1.19740
H          0.13550       -0.49160        2.01340
