18
gdb 14776	2.95857	1.16328	0.88386	4.5218	66.48	-0.2694	0.0155	0.2849	1305.0383	0.151419	-422.092162	-422.082772	-422.081828	-422.127683	31.537
C         -0.58410        1.42540       -0.31940
C         -0.32140       -0.06940       -0.27320
O         -1.54430       -0.73350       -0.00330
C         -1.43450       -2.13540        0.03690
C         -2.83610       -2.70980        0.13800
O         -3.56780       -2.49040       -1.06980
C         -4.24840       -1.32870       -1.17890
O         -4.80170       -1.00670       -2.18670
H          0.34310        1.96690       -0.52850
H         -1.30940        1.66260       -1.10270
H         -0.98260        1.77610        0.63680
H          0.09250       -0.42250       -1.23150
H          0.41740       -0.31170        0.50870
H         -0.94560       -2.52030       -0.87230
H         -0.83970       -2.46650        0.90550
H         -2.79610       -3.79240        0.27950
H         -3.36110       -2.26250        0.99110
H         -4.24640       -0.74010       -0.24450
