17
gdb 13958	5.63764	1.26673	1.16792	3.1905	70.99	-0.2559	0.0227	0.2786	1051.7684	0.142266	-363.826407	-363.818871	-363.817926	-363.858735	28.019
N         -0.08180        1.29540       -0.05270
C         -0.12260        0.04750       -0.22830
O         -1.07720       -0.68690        0.39130
C         -1.00660       -2.06910        0.23300
C         -1.17010       -2.74150       -1.09900
C         -2.15860       -3.03200        0.01100
C         -1.53730       -4.01590        1.01150
C         -0.37350       -2.99820        1.27060
H          0.68050        1.69550       -0.59600
H          0.54310       -0.55490       -0.85890
H         -1.55600       -2.09730       -1.88270
H         -0.47070       -3.50310       -1.43850
H         -3.21330       -2.82040       -0.10920
H         -2.15070       -4.18180        1.89870
H         -1.24670       -4.98550        0.59600
H          0.65010       -3.33250        1.07310
H         -0.42290       -2.57180        2.27450
