9
gdb 3908	5.9318	3.00542	1.99475	2.7399	46.97	-0.2754	-0.116	0.1594	563.8335	0.055765	-375.35753	-375.352401	-375.351457	-375.386615	18.132
O          0.03490       -0.01000        0.33520
C          0.02660        1.14260        0.00890
O         -1.17330        1.76980       -0.26340
N         -1.24080        3.10410       -0.64570
C         -0.11950        3.72900       -0.73340
N          1.15500        3.23880       -0.49400
C          1.21230        2.00560       -0.14100
H         -0.19810        4.76800       -1.03320
H          2.17480        1.54200        0.06620
