16
gdb 17293	3.1603	2.50971	1.90921	2.9608	63.12	-0.2432	0.0522	0.2955	754.9736	0.130063	-383.664618	-383.657999	-383.657055	-383.695	26.072
C         -0.02910        1.55930       -0.02740
C          0.01590        0.05090        0.01180
C         -1.29450       -0.77620        0.06510
O         -0.85410       -1.48490        1.25340
C          0.39020       -0.77590        1.26950
C          1.55900       -1.42790        0.47140
O          0.99800       -2.05170       -0.68540
C          1.19870       -0.64180       -0.72790
H          0.95900        1.99110        0.16860
H         -0.35580        1.91820       -1.01070
H         -0.72240        1.95470        0.72170
H         -2.19100       -0.17940        0.27410
H         -1.47760       -1.45560       -0.77190
H          0.64920       -0.33730        2.23750
H          2.51110       -1.80940        0.82380
H          1.80930       -0.24590       -1.53280
