13
gdb 9326	4.26262	1.08347	0.90467	3.1141	56.86	-0.2932	-0.0758	0.2174	1192.7992	0.09398	-435.757916	-435.74956	-435.748616	-435.792118	27.856
O         -0.01730        1.43750       -0.04940
C         -0.00620        0.02710       -0.07320
C         -1.39960       -0.56420        0.03790
O         -2.11860       -0.13590       -1.15110
C         -3.37820       -0.55740       -1.25480
O         -3.97000       -1.25870       -0.48240
C         -3.97930       -0.03700       -2.48980
N         -4.49660        0.34840       -3.44750
H         -0.50240        1.73640       -0.82610
H          0.48580       -0.36660       -0.97550
H          0.57680       -0.30100        0.79330
H         -1.38550       -1.65750        0.07130
H         -1.92730       -0.18480        0.91690
