20
gdb 7351	4.07345	1.10094	0.95592	1.859	72.4	-0.2618	0.0196	0.2814	1309.1892	0.174457	-386.192824	-386.182764	-386.181819	-386.22903	34.724
C         -0.92060        1.10670       -0.38440
C          0.09570        0.04900        0.00090
O          0.59580       -0.54000       -1.21530
C          1.51880       -1.51350       -1.06370
O          1.93140       -1.87630        0.01020
C          1.92780       -2.08730       -2.41240
C          3.25440       -2.84130       -2.30180
C          0.79400       -2.98550       -2.94730
H         -0.46170        1.88190       -1.00440
H         -1.75050        0.66590       -0.94410
H         -1.32480        1.57950        0.51570
H          0.93570        0.47200        0.56110
H         -0.34540       -0.73740        0.62170
H          2.03470       -1.23920       -3.09880
H          4.05870       -2.18560       -1.95710
H          3.17130       -3.66340       -1.58600
H          3.53890       -3.25280       -3.27490
H         -0.14330       -2.43000       -3.03120
H          1.05520       -3.37350       -3.93630
H          0.63080       -3.84020       -2.28230
