19
gdb 11863	5.93185	1.06934	1.0116	1.3044	72.48	-0.2374	0.0744	0.3117	1190.4533	0.16567	-365.016416	-365.008222	-365.007278	-365.049344	30.733
O         -0.01550        1.35300       -0.26370
C          0.01880       -0.03990        0.01380
C         -1.40870       -0.53800        0.07980
C         -2.23140       -0.55070       -1.24490
C         -2.70550       -1.95960       -0.87000
C         -4.10600       -2.43060       -0.81510
N         -3.13150       -3.04200       -1.74680
C         -1.62660       -2.07580        0.21150
H          0.88980        1.66990       -0.33130
H          0.56210       -0.59020       -0.77300
H          0.52940       -0.24660        0.96910
H         -1.94290        0.00900        0.86190
H         -2.99100        0.22370       -1.37490
H         -1.57730       -0.55150       -2.12470
H         -4.43490       -3.08370       -0.01040
H         -4.88150       -1.78300       -1.21830
H         -3.28400       -2.68810       -2.68890
H         -0.76330       -2.65160       -0.13980
H         -1.93090       -2.45890        1.18850
