13
gdb 288	5.05033	3.24897	2.23698	4.1096	46.24	-0.26	0.0186	0.2786	574.3293	0.10692	-323.665987	-323.658861	-323.657917	-323.69684	24.979
C         -0.01820        1.60110        0.01150
C          0.06840        0.06800       -0.00670
O          0.83530       -0.39600        1.07100
C         -1.32410       -0.58130        0.07660
N         -2.16260       -0.36550       -0.96590
O         -1.63100       -1.24490        1.05400
H          0.99310        2.01500        0.02650
H         -0.53970        1.99540       -0.86710
H         -0.54140        1.93950        0.91070
H          0.53360       -0.25130       -0.95430
H          0.21550       -0.92520        1.60260
H         -1.87130        0.12780       -1.79130
H         -3.07090       -0.79970       -0.95520
