20
gdb 7366	3.65979	1.05946	0.88578	2.8015	72.47	-0.2637	-0.0252	0.2386	1351.3241	0.174072	-386.171632	-386.161702	-386.160757	-386.206916	35.006
C          0.05450        1.52940        0.13190
C         -0.05260        0.00840       -0.00050
C          0.79010       -0.54830       -1.15280
C          0.62700       -2.07260       -1.31070
O         -0.71870       -2.41380       -1.51100
C          1.47040       -2.61900       -2.46590
C          2.96820       -2.42120       -2.43540
O          0.91230       -3.19580       -3.37660
H          1.08880        1.84420        0.31260
H         -0.28830        2.03130       -0.77980
H         -0.55490        1.89850        0.96250
H          0.26300       -0.46810        0.93740
H         -1.09470       -0.28480       -0.16010
H          0.49120       -0.06910       -2.09460
H          1.84810       -0.30730       -0.98790
H          1.00080       -2.55440       -0.38840
H         -0.73370       -2.88200       -2.36250
H          3.20710       -1.39180       -2.72660
H          3.37260       -2.57460       -1.43050
H          3.44270       -3.10250       -3.14280
