13
gdb 4812	4.7268	1.47296	1.13184	1.049	56.02	-0.225	-0.0023	0.2227	968.4501	0.095457	-435.760401	-435.752905	-435.751961	-435.792934	26.39
O          0.22160        0.97860       -0.77890
C         -0.07770        0.14550        0.31230
C         -1.43360       -0.46960        0.16610
N         -2.17990       -0.40560       -0.89610
C         -3.30500       -1.13970       -0.56750
O         -4.32200       -1.30090       -1.43090
C         -3.18400       -1.62110        0.69360
O         -1.96050       -1.18110        1.17000
H         -0.41400        0.76940       -1.47550
H          0.66760       -0.66090        0.41860
H         -0.04020        0.73010        1.24180
H         -4.08860       -0.82200       -2.23500
H         -3.78670       -2.21730        1.35200
