17
gdb 13491	3.12385	1.7474	1.44654	1.6882	64.99	-0.2675	0.0206	0.2881	926.0506	0.141994	-400.99931	-400.991215	-400.99027	-401.031936	29.843
C         -0.06180        1.59430        0.04900
C         -0.02940        0.06680       -0.01080
O          0.51880       -0.40580       -1.23540
C          0.72190       -0.53550        1.18450
C          0.93620       -2.06420        1.21200
O          2.38910       -1.86430        1.19330
C          2.23780       -0.50380        1.09100
N          3.08880        0.40380        0.91280
H          0.95600        1.99610        0.09020
H         -0.56530        1.98940       -0.83730
H         -0.59800        1.94260        0.93780
H         -1.05520       -0.32190        0.00150
H          1.38480        0.00840       -1.33830
H          0.34460       -0.12770        2.12600
H          0.62680       -2.59620        2.11370
H          0.61470       -2.58700        0.30940
H          4.03500        0.02190        0.85810
