19
gdb 10189	2.11359	1.57357	0.95693	3.4203	73.08	-0.2825	0.0212	0.3036	1251.2589	0.163326	-365.078194	-365.068447	-365.067502	-365.113279	33.655
C         -0.00190        1.49670        0.01030
C          0.18140       -0.00800        0.08810
O          0.50530       -0.48220       -1.21570
C          0.68040       -1.87510       -1.30890
C          0.75450       -2.25750       -2.79380
C         -0.54460       -1.93940       -3.53590
C          1.90390       -2.31000       -0.59180
N          2.85760       -2.64290       -0.03030
H          0.91900        1.97790       -0.33000
H         -0.80360        1.75300       -0.68800
H         -0.25830        1.89580        0.99590
H          0.98510       -0.26750        0.79240
H         -0.73990       -0.49900        0.44060
H         -0.16980       -2.39990       -0.83970
H          1.59570       -1.71550       -3.23830
H          0.98870       -3.32520       -2.86000
H         -1.38600       -2.50750       -3.12380
H         -0.78290       -0.87630       -3.45960
H         -0.45460       -2.19800       -4.59450
