13
gdb 375	7.1361	2.21726	1.80468	3.3465	50.37	-0.3028	0.0117	0.3145	670.8765	0.107081	-286.50404	-286.497024	-286.49608	-286.534653	24.136
C          0.01370        1.55590       -0.00330
C          0.00130        0.02680        0.02620
C         -1.42950       -0.54000       -0.02290
O         -2.15360       -0.13490       -1.17080
C         -1.40890       -2.01380        0.09470
N         -1.37280       -3.16730        0.15500
H          1.03960        1.93360       -0.01450
H         -0.50300        1.93160       -0.88980
H         -0.48750        1.97150        0.87740
H          0.56470       -0.38140       -0.82270
H          0.49120       -0.34970        0.93130
H         -2.00060       -0.14630        0.82610
H         -1.72250       -0.51120       -1.94720
