14
gdb 17150	4.23419	2.0565	1.66605	4.3896	66.92	-0.257	-0.0012	0.2558	770.0896	0.108628	-341.494649	-341.48862	-341.487676	-341.524712	23.534
N          0.04340       -1.06610       -0.07950
C          0.00880        0.08780       -0.01260
C         -0.01580        1.52400        0.09200
C         -0.76310        2.41420        1.09420
C         -0.10500        3.36370        0.09060
C          1.19230        2.51300       -0.05760
C          0.99800        2.50330       -1.56840
N         -0.45700        2.42770       -1.10540
H         -1.85270        2.35090        1.06020
H         -0.37930        2.42270        2.11610
H         -0.20260        4.44270       -0.02000
H          2.09590        2.53720        0.55830
H          1.22310        3.42180       -2.11790
H          1.32400        1.62320       -2.12940
