16
gdb 20012	4.56777	1.24814	1.10204	3.3681	67.57	-0.2515	-0.0011	0.2505	1070.3378	0.130704	-379.878697	-379.871023	-379.870079	-379.911414	27.395
O          0.15780        0.24800       -0.54200
C          0.14410        1.37780       -0.11930
N          1.19600        1.98630        0.54470
C          2.58550        1.85100        0.18120
C          1.89990        3.19260        0.14090
C          1.59670        3.84580       -1.16900
C          0.93930        5.17810       -1.19640
N          2.35370        5.03760       -1.57740
H         -0.74890        2.03040       -0.15270
H          3.27220        1.61820        0.99020
H          2.79980        1.36440       -0.76720
H          2.09690        3.89040        0.95620
H          1.40140        3.14970       -1.98350
H          0.26880        5.43720       -2.01040
H          0.69660        5.64110       -0.24280
H          2.95640        5.34890       -0.81830
