20
gdb 9956	3.02957	1.43681	1.31533	1.9157	71.5	-0.2407	0.071	0.3117	1057.6774	0.174459	-386.120945	-386.111046	-386.110102	-386.155109	35.781
C         -0.13440        1.50630       -0.18500
C          0.01210        0.01170        0.00560
C          1.34900       -0.66800       -0.12340
O          2.44590        0.15090       -0.40860
C          0.67690       -0.59540        1.23640
C          1.26530        0.29720        2.31230
C          0.08600       -1.88570        1.75500
O          1.12790       -2.64990        2.35580
H          0.79000        2.03660        0.04780
H         -0.38660        1.73260       -1.22640
H         -0.93400        1.91020        0.44560
H         -0.82620       -0.56040       -0.38690
H          1.37830       -1.64270       -0.61140
H          3.21080       -0.21230        0.05040
H          1.89920        1.07810        1.88870
H          0.47700        0.78160        2.90030
H          1.87170       -0.30390        2.99620
H         -0.70940       -1.66470        2.48600
H         -0.37860       -2.44360        0.92620
H          0.72760       -3.39430        2.81430
