18
gdb 12878	2.65894	2.31161	1.73133	1.875	66.74	-0.2336	0.0796	0.3131	846.2159	0.154278	-384.925218	-384.917666	-384.916722	-384.956617	29.278
C          0.00900        1.55790        0.00460
C         -0.01030        0.04890        0.01720
C         -1.31840       -0.70090       -0.26020
C         -1.40530       -1.69870        0.90950
O         -0.04930       -1.94570        1.32350
C          0.69430       -0.77370        1.07450
C          1.25330       -0.73750       -0.32450
O          1.19750       -1.89790       -1.08970
H          0.99740        1.94480        0.27380
H         -0.23590        1.94780       -0.98990
H         -0.71400        1.97460        0.71590
H         -2.17250       -0.01880       -0.27470
H         -1.27360       -1.22090       -1.22180
H         -1.96990       -1.27080        1.75030
H         -1.84950       -2.66250        0.64660
H          1.20660       -0.36160        1.93920
H          2.15410       -0.15580       -0.50660
H          0.90250       -2.59500       -0.48560
