17
gdb 7089	5.29303	0.84253	0.77266	3.9165	77.36	-0.2463	-0.0129	0.2333	1517.2831	0.140048	-363.876066	-363.866071	-363.865127	-363.914395	32.87
C          0.29690        1.36700        0.14550
C         -0.39590        0.06070       -0.25230
N          0.23050       -0.59550       -1.38830
C          1.07220       -1.66350       -1.24920
O          1.32910       -2.18910       -0.17930
C          1.63200       -2.12840       -2.50980
C          2.12400       -2.54970       -3.52640
C          2.72290       -3.06690       -4.74570
H          1.33610        1.17900        0.42920
H          0.29200        2.08820       -0.67890
H         -0.21560        1.82610        0.99700
H         -0.35920       -0.65500        0.57150
H         -1.44980        0.24550       -0.49080
H          0.12410       -0.19960       -2.30850
H          3.34920       -3.94070       -4.53780
H          1.95360       -3.36710       -5.46550
H          3.35100       -2.30950       -5.22700
