18
gdb 6268	3.55509	1.14084	0.97386	1.0622	69.08	-0.2506	-0.0945	0.1561	1235.6546	0.15007	-384.970315	-384.960839	-384.959895	-385.005364	32.89
C          0.05170        1.59000        0.19310
C         -0.02210        0.07480       -0.04430
C         -1.46900       -0.37950       -0.27360
C          0.86580       -0.35340       -1.22070
C          2.35000       -0.25690       -0.96490
O          2.86700       -0.00540        0.10010
C          3.28320       -0.52420       -2.15780
O          2.89540       -0.75910       -3.27140
H          1.07480        1.91170        0.40250
H         -0.31100        2.14110       -0.68320
H         -0.57110        1.87890        1.04570
H          0.36230       -0.42510        0.85330
H         -1.89120        0.08450       -1.17300
H         -1.53510       -1.46580       -0.39740
H         -2.10440       -0.09890        0.57230
H          0.67210       -1.39950       -1.50220
H          0.63870        0.21440       -2.13320
H          4.35710       -0.47180       -1.87820
