18
gdb 9665	4.69952	1.1227	1.04529	2.7536	70.25	-0.2533	-0.0334	0.2198	1183.1969	0.150373	-384.942406	-384.933131	-384.932187	-384.976868	32.377
C         -0.39270        1.47200        0.34460
C          0.39260        0.20210       -0.00960
C          0.80680       -0.55590        1.22910
O         -0.17900       -1.32370        1.91200
C          0.92380       -2.03590        1.31340
C          0.63710       -2.98280        0.17720
C          1.89140       -2.52740        2.35130
O          2.59900       -3.49250        2.21830
H          0.20360        2.14800        0.96680
H         -0.68140        2.01610       -0.55900
H         -1.30240        1.22080        0.89770
H         -0.21270       -0.43820       -0.65610
H          1.29820        0.46430       -0.57130
H          1.44270        0.02280        1.90640
H         -0.09170       -2.56880       -0.51960
H          1.56170       -3.21160       -0.35960
H          0.24500       -3.92590        0.56890
H          1.89180       -1.91010        3.27760
