22
gdb 10514	2.60092	1.33768	1.03025	1.3994	78.05	-0.2608	0.079	0.3398	1237.9119	0.199128	-350.192332	-350.18265	-350.181706	-350.227012	35.561
C          0.87320       -0.12720       -1.20100
C         -0.06930       -0.21190        0.00600
C          0.59550       -0.70700        1.28620
C          1.73170        0.13660        1.84620
C          1.31340        1.54000        2.27580
O          2.44770        2.16260        2.86360
C         -0.28580       -1.42060        2.28680
C          0.70520       -2.20430        1.45890
H          1.34460       -1.09530       -1.40050
H          0.32780        0.17330       -2.10110
H          1.67250        0.60380       -1.04290
H         -0.52920        0.76980        0.17960
H         -0.89830       -0.88870       -0.23500
H          2.15920       -0.36400        2.72250
H          2.54560        0.22420        1.11670
H          0.95530        2.11630        1.40820
H          0.47740        1.47400        2.99050
H          2.20010        3.05520        3.12120
H         -0.07300       -1.28860        3.34280
H         -1.34130       -1.52870        2.05900
H          0.31770       -2.83860        0.66790
H          1.58340       -2.60370        1.95530
