15
gdb 15058	2.96816	1.60349	1.10775	4.2193	62.09	-0.2886	0.0061	0.2948	1041.4316	0.116924	-399.765008	-399.756564	-399.75562	-399.798724	28.696
C          0.25710        1.41100        0.20320
O         -0.07270        0.04270        0.02010
C          0.45400       -0.52810       -1.15120
C          1.93650       -0.57050       -1.11900
N          3.09060       -0.58810       -1.07030
C         -0.11730       -1.93100       -1.26920
C         -1.35240       -2.16110       -2.02170
O         -0.07420       -2.50000       -2.56950
H          1.33970        1.55550        0.31160
H         -0.10180        2.02270       -0.63730
H         -0.24260        1.73060        1.11900
H          0.16180        0.04350       -2.04700
H          0.14900       -2.59880       -0.45150
H         -1.98800       -3.00420       -1.75970
H         -1.85750       -1.32150       -2.49660
