13
gdb 12611	3.28128	2.29282	1.3731	1.1778	55.38	-0.2779	-0.0213	0.2566	826.9542	0.09619	-435.82568	-435.818371	-435.817427	-435.858991	24.863
C         -0.04230        1.47400        0.00870
N         -0.01330        0.02260        0.00060
C         -1.13100       -0.78400        0.00330
O         -2.28180       -0.42820        0.01250
C         -0.57230       -2.20120       -0.00800
O          0.84930       -2.04180       -0.01610
C          1.17010       -0.72120       -0.01100
O          2.28680       -0.29620       -0.01590
H          0.99010        1.82320       -0.00040
H         -0.57260        1.84530       -0.87170
H         -0.55360        1.83620        0.90400
H         -0.88050       -2.75670        0.88230
H         -0.89180       -2.74700       -0.90030
