15
gdb 20783	4.81659	1.87971	1.46344	5.29	67.34	-0.2493	0.0116	0.2609	844.0267	0.120926	-358.8114	-358.804833	-358.803889	-358.842239	24.518
C         -0.31050        1.61780       -0.16310
C          0.00450        0.14170       -0.02720
C          0.75590       -0.57710       -1.22160
C          1.88820       -0.80600       -0.22520
C          3.06680       -1.21040        0.36180
N          3.01970       -0.78920        1.66630
N          1.89350       -0.16030        1.92620
N          1.22970       -0.18210        0.76060
H          0.55850        2.17150       -0.53010
H         -1.13760        1.75810       -0.86600
H         -0.60710        2.04040        0.80100
H         -0.85730       -0.42160        0.34050
H          0.26510       -1.47780       -1.59540
H          0.99210        0.08350       -2.05880
H          3.91920       -1.74620       -0.01940
