11
gdb 740	9.19708	3.52282	2.58813	2.8649	47.54	-0.2618	-0.0052	0.2566	487.3888	0.085647	-285.292217	-285.28705	-285.286106	-285.320703	18.326
C         -0.02010        1.50730        0.00420
C         -0.00040        0.01220        0.03520
N         -0.08640       -0.67210       -1.08230
O         -0.04020       -2.01490       -0.71530
C          0.07270       -2.09340        0.61730
C          0.10430       -0.85440        1.16560
H          0.89720        1.91910        0.43750
H         -0.11000        1.85830       -1.02530
H         -0.86200        1.89890        0.58420
H          0.11860       -3.09070        1.02690
H          0.18860       -0.58870        2.20630
