10
gdb 2495	2.7744	2.70738	1.449	3.011	54.2	-0.2835	-0.0656	0.2179	766.1068	0.063993	-322.148261	-322.141058	-322.140114	-322.180101	23.992
O         -0.02270       -0.00130       -0.04240
C         -0.00460        1.19160        0.00600
C          1.32420        2.01090        0.01720
C          1.37110        2.83380       -1.18770
C          1.34960        3.47620       -2.20120
C          1.37890        2.81570        1.24370
N          1.38490        3.42460        2.22510
H         -0.91470        1.82180        0.02540
H          2.14120        1.28040        0.02850
H          1.35400        4.05360       -3.09340
