18
gdb 12126	3.73026	1.70752	1.6749	1.0064	71.55	-0.2049	0.0815	0.2864	884.9915	0.152633	-347.731288	-347.723728	-347.722783	-347.762368	30.446
C         -0.02500        1.51780        0.06610
C          0.01710        0.01970       -0.01300
C         -0.82980       -0.89050        0.83660
C          0.67430       -0.98270        0.92410
C          1.33900       -1.67660       -0.30420
O          2.67870       -2.02100       -0.29020
C          0.36930       -2.19070       -1.33110
C          0.66830       -0.70340       -1.23560
H          0.94500        1.95780       -0.19400
H         -0.77170        1.93360       -0.62230
H         -0.28310        1.85110        1.07660
H         -1.29070       -0.39510        1.68750
H         -1.44210       -1.68820        0.43000
H          1.22650       -0.78540        1.83490
H          2.75540       -2.91010        0.07560
H          0.86920       -2.65910       -2.17440
H         -0.59850       -2.62330       -1.10060
H          1.09180       -0.15910       -2.07010
