18
gdb 13489	3.11564	1.68257	1.41969	2.2439	67.96	-0.244	-0.024	0.22	960.7369	0.152436	-384.952759	-384.944361	-384.943417	-384.985718	31.171
C          0.03960        1.55900        0.04180
C          0.02930        0.02920        0.03700
O          0.75940       -0.50430        1.13900
C         -1.39470       -0.53630        0.01280
C         -1.61410       -2.08360        0.01130
C         -2.67260       -1.94740        1.14900
C         -2.15200       -0.52140        1.35490
O         -2.14720        0.23900        2.28430
H          1.06810        1.92600        0.09730
H         -0.42400        1.96040       -0.86540
H         -0.51800        1.93990        0.90380
H          0.56210       -0.33740       -0.84930
H          0.40240       -0.09890        1.93870
H         -1.99050       -0.04900       -0.76830
H         -1.96050       -2.52310       -0.92430
H         -0.71590       -2.60040        0.35370
H         -3.70190       -1.94560        0.77480
H         -2.61290       -2.61580        2.01110
