17
gdb 9228	3.86474	1.18321	1.06812	0.879	72.46	-0.2459	0.0229	0.2689	1158.7072	0.138947	-363.829545	-363.820049	-363.819105	-363.864249	32.961
C          0.12390        1.31120       -0.29320
O         -0.05490       -0.04530        0.11590
C         -1.32630       -0.48790        0.18830
C         -1.37280       -1.92740        0.63520
N         -2.29230        0.28390       -0.10370
C         -3.65480       -0.23870       -0.01020
C         -4.16040       -0.30250        1.36330
C         -4.56310       -0.35530        2.49490
H          1.20150        1.48060       -0.28460
H         -0.28380        1.47220       -1.29500
H         -0.38040        1.99400        0.39600
H         -0.36980       -2.28670        0.86420
H         -2.01010       -2.02660        1.51800
H         -1.80130       -2.55710       -0.15190
H         -4.30370        0.42630       -0.59150
H         -3.75130       -1.23550       -0.46890
H         -4.92570       -0.39410        3.49210
