14
gdb 9128	7.55282	0.76052	0.69699	3.4632	66.38	-0.2727	-0.033	0.2397	1546.6848	0.104374	-419.660168	-419.650855	-419.649911	-419.695788	29.999
C         -0.04890        1.33920        0.07060
O          0.02140       -0.09030       -0.02700
C          0.64800       -0.55140       -1.12690
O          1.12560        0.14900       -1.98490
C          0.66970       -1.99400       -1.13820
C          0.72210       -3.19520       -1.20820
C          0.76130       -4.64970       -1.24930
O          1.42710       -5.08140       -2.42420
H          0.95370        1.77340        0.09430
H         -0.59280        1.75710       -0.78020
H         -0.57740        1.54340        1.00140
H          1.26730       -5.00860       -0.33790
H         -0.27430       -5.02560       -1.20530
H          1.43370       -6.04400       -2.41590
