19
gdb 6095	4.47368	1.00338	0.86214	3.7105	69.11	-0.2404	0.0387	0.2791	1344.8606	0.162925	-402.236212	-402.226281	-402.225337	-402.272002	34.813
C          0.47070        1.34160       -0.24430
C         -0.11520       -0.02850        0.10340
C          0.08480       -1.04350       -1.01560
O          0.49740       -0.58710        1.26680
C          0.15450        0.02080        2.49240
C          0.57280       -0.85120        3.67910
N          1.04840       -2.07350        3.33800
O          0.45340       -0.44470        4.81840
H          1.54730        1.25930       -0.42520
H         -0.00280        1.73760       -1.14810
H          0.31070        2.06730        0.55790
H         -1.19440        0.08370        0.30180
H          1.15210       -1.18380       -1.21520
H         -0.34410       -2.01020       -0.73820
H         -0.39560       -0.70140       -1.93670
H          0.63570        0.99870        2.62630
H         -0.93270        0.17860        2.56860
H          1.15550       -2.31150        2.36690
H          1.37270       -2.69100        4.06260
