13
gdb 21926	5.35925	1.58018	1.2297	4.3854	61.35	-0.2346	-0.0691	0.1656	905.8256	0.096616	-394.779471	-394.772554	-394.77161	-394.811245	24.275
O         -0.00400        1.42680        0.00710
C          0.00810        0.01590        0.00230
C         -1.40890       -0.49330        0.01240
C         -2.52420        0.35200        0.02370
N         -3.76490       -0.12750        0.03240
N         -3.93940       -1.44780        0.03020
C         -2.85050       -2.21560        0.01940
N         -1.57830       -1.81130        0.01020
H          0.90390        1.74140        0.00090
H          0.51070       -0.39610       -0.88700
H          0.52560       -0.40210        0.88010
H         -2.41620        1.42940        0.02580
H         -3.03170       -3.28700        0.01780
