16
gdb 8871	2.74689	1.57575	1.10302	0.9376	62.82	-0.2666	-0.1093	0.1573	1068.9955	0.127074	-420.895403	-420.886293	-420.885348	-420.929691	31.353
C         -0.08370        1.56800       -0.31470
C         -0.11930        0.04480       -0.17610
C          0.82760       -0.63700       -1.19350
O          2.14990       -0.18330       -1.05300
C          0.78430       -2.14300       -1.02750
O          1.73790       -2.76790       -0.61390
C         -0.48290       -2.91760       -1.39960
O         -1.46130       -2.40840       -1.87840
H          0.93590        1.94000       -0.19140
H         -0.44330        1.88120       -1.30090
H         -0.71970        2.03940        0.44010
H          0.19450       -0.24790        0.83360
H         -1.13550       -0.33040       -0.33190
H          0.46580       -0.39940       -2.20570
H          2.65470       -0.92630       -0.69010
H         -0.39120       -4.00550       -1.20010
