14
gdb 4579	5.86019	1.55137	1.23599	2.1836	67.12	-0.2419	-0.0378	0.2041	930.9622	0.108177	-378.781068	-378.773951	-378.773007	-378.813025	25.954
C         -0.05580        1.49130        0.03190
C          0.00330       -0.01120        0.01090
N          0.09170       -0.60460       -1.18980
C          0.14430       -1.93030       -1.21590
C          0.11020       -2.69620       -0.04890
O          0.16750       -4.04950       -0.14180
C          0.01780       -1.98760        1.14420
N         -0.03560       -0.65660        1.18100
H          0.83490        1.91540       -0.44250
H         -0.91960        1.84770       -0.53840
H         -0.12580        1.85220        1.05830
H          0.21600       -2.42050       -2.18430
H          0.13430       -4.43350        0.74160
H         -0.01420       -2.51110        2.10110
