16
gdb 1522	7.86826	1.27011	1.11642	2.4553	58.89	-0.2574	0.0395	0.297	1044.6029	0.135138	-362.918463	-362.909853	-362.908909	-362.952175	28.916
C         -0.17170        1.49890        0.00930
C         -0.00020       -0.00850        0.00160
O         -1.31210       -0.59380        0.01280
C         -1.36740       -1.93860        0.00980
N         -0.33960       -2.67530       -0.00250
C         -2.81600       -2.38340        0.02300
O         -2.84550       -3.79480        0.02010
H          0.80870        1.98450        0.00080
H         -0.72950        1.83370       -0.87000
H         -0.71070        1.82680        0.90280
H          0.53810       -0.35720       -0.88600
H          0.55640       -0.36420        0.87490
H         -0.63310       -3.65160       -0.00220
H         -3.30120       -1.95660        0.91390
H         -3.31850       -1.95260       -0.85640
H         -3.76290       -4.08020        0.02720
