18
gdb 18406	3.19567	2.29556	1.51085	1.7926	68.1	-0.237	0.083	0.3201	858.5077	0.155607	-384.914361	-384.907587	-384.906643	-384.94497	27.167
C         -0.00380        1.50170        0.09360
C          1.31340        0.77830        0.02480
O          2.10190        0.80370        1.17090
C          2.68660       -0.45610        1.48530
C          1.73340       -1.36720        2.26170
C          0.47360       -1.78480        1.50020
O         -0.36670       -0.67860        1.18750
C          0.01500       -0.00140        0.03350
H         -0.24900        1.92090        1.06250
H         -0.34860        2.06630       -0.76480
H          1.87530        0.80650       -0.91070
H          3.03890       -0.95290        0.56770
H          3.56560       -0.23310        2.09910
H          2.27940       -2.27320        2.55940
H          1.43040       -0.85230        3.18040
H          0.73750       -2.33480        0.58320
H         -0.13020       -2.45230        2.12400
H         -0.28320       -0.48960       -0.89610
