12
gdb 23871	2.9851	1.75186	1.40183	0.6619	48.58	-0.2659	0.0274	0.2934	859.7058	0.079151	-508.985782	-508.977821	-508.976877	-509.018364	28.515
N         -0.04290        1.49580        0.09100
C         -0.03330        0.03850       -0.00080
C         -1.38310       -0.50470        0.12780
C         -2.49710       -0.93990        0.22320
C          0.62380       -0.47830       -1.29730
F          1.87930       -0.00270       -1.38480
F          0.69040       -1.81150       -1.32740
F         -0.03970       -0.06600       -2.38380
H          0.90050        1.84630       -0.04810
H         -0.61990        1.87680       -0.65320
H          0.59180       -0.35110        0.81320
H         -3.48150       -1.32950        0.31130
