20
gdb 18011	4.21075	1.45115	1.3005	1.62	74.33	-0.239	0.0745	0.3135	1032.9365	0.17781	-348.973984	-348.966178	-348.965234	-349.006361	29.58
C         -0.28600        1.40110        0.01410
C          0.03490       -0.09660       -0.00710
C          0.80880       -0.55960        1.22010
C          0.10820       -0.53950        2.62180
C          0.50640       -2.02610        2.84840
C         -0.53080       -3.03360        2.33560
O         -0.05370       -2.90190        0.97500
C          1.05820       -2.07750        1.39500
H          0.62860        2.00460        0.03810
H         -0.85660        1.69730       -0.87150
H         -0.87960        1.66930        0.89510
H         -0.88810       -0.68220       -0.08020
H          0.61670       -0.33550       -0.90730
H          1.76940       -0.03190        1.27840
H          0.54110        0.16380        3.33610
H         -0.97350       -0.37250        2.59180
H          1.07810       -2.27550        3.74100
H         -0.39390       -4.05950        2.70300
H         -1.58740       -2.75440        2.43780
H          2.01830       -2.49770        1.08010
