15
gdb 4483	3.65653	1.73903	1.19483	1.8198	64.93	-0.1853	0.0384	0.2237	971.3419	0.117992	-399.828048	-399.819631	-399.818687	-399.860879	30.028
C          0.01740        1.59410        0.02710
C          0.03240        0.09790        0.05110
C          0.00990       -0.74400       -1.01480
O         -0.03060       -0.48040       -2.33620
O          0.03280       -2.04560       -0.65140
C          0.07320       -2.06150        0.74990
N          0.10400       -3.28840        1.40660
C          0.07360       -0.78270        1.19440
H          0.91000        2.01800        0.50250
H         -0.01740        1.96290       -1.00130
H         -0.85250        2.00110        0.55620
H         -0.03630       -1.32090       -2.80790
H          0.92450       -3.83930        1.17300
H         -0.71700       -3.85570        1.21920
H          0.10050       -0.49140        2.23330
