13
gdb 2664	5.70895	1.41907	1.15293	1.9433	57.8	-0.2696	0.0013	0.2708	965.7566	0.100458	-340.636306	-340.628407	-340.627463	-340.669428	25.49
C         -0.34310        1.15430        0.25330
O          0.63290        0.12710        0.08530
C          0.58650       -0.86700        0.98210
N          1.41410       -1.81690        0.90550
C          1.36620       -2.89360        1.87320
C          0.32440       -2.80820        2.91460
N         -0.50790       -2.69560        3.70890
H         -0.23110        1.65530        1.22150
H         -0.16720        1.87370       -0.54660
H         -1.36000        0.75560        0.16400
H         -0.20060       -0.77130        1.74200
H          1.23510       -3.84360        1.34020
H          2.34010       -2.96400        2.37350
