15
gdb 3464	5.33684	2.56588	2.52653	1.313	61.06	-0.2248	0.0173	0.2421	607.6153	0.126748	-308.477672	-308.472025	-308.471081	-308.506617	23.092
O          0.01210        1.40260       -0.08870
C          0.02310        0.00170        0.00750
C          0.02320       -0.62170        1.46970
C         -1.47910       -0.18500        1.52310
C         -1.42350       -0.60760        0.01600
C         -1.05340       -2.08560        0.13870
C         -0.10980       -2.09290        1.08900
H          0.91770        1.71710       -0.00600
H          0.73100       -0.45360       -0.69760
H          0.75080       -0.32950        2.22740
H         -2.14020       -0.75730        2.17760
H         -1.60690        0.89020        1.65930
H         -2.17260       -0.30070       -0.71280
H         -1.45390       -2.89850       -0.45010
H          0.47200       -2.91510        1.48140
