19
gdb 9371	4.43732	0.99042	0.86241	2.2862	71.55	-0.2483	0.0287	0.277	1368.5082	0.162821	-402.201197	-402.191094	-402.190149	-402.237535	34.176
C          0.02620        1.43590       -0.08680
N          0.03880       -0.01040       -0.05010
C         -1.04230       -0.66350        0.00740
C         -2.46820       -0.16100        0.05340
O         -1.02150       -2.02100        0.03830
C          0.26280       -2.65740       -0.02820
C         -0.01100       -4.15080       -0.02690
O         -0.78210       -4.55170       -1.14340
H          0.60010        1.82640        0.76210
H          0.53710        1.78020       -0.99390
H         -0.96930        1.90010       -0.06430
H         -2.71930        0.37860       -0.86480
H         -3.15590       -0.99910        0.16580
H         -2.61260        0.52750        0.89040
H          0.77560       -2.34620       -0.94370
H          0.87630       -2.35250        0.82650
H          0.94000       -4.69050       -0.08520
H         -0.49810       -4.43130        0.92080
H         -1.55740       -3.97940       -1.15230
