18
gdb 20191	3.23714	2.6264	1.97028	1.5658	69.58	-0.2241	0.0843	0.3084	756.4814	0.157301	-347.777637	-347.771626	-347.770681	-347.807365	25.23
C         -0.05890        1.52550       -0.10590
C          1.34280        2.15620        0.02840
C          2.22630        1.50980        1.08450
C          1.78190        0.93860        2.40990
O          0.42850        0.48580        2.40360
C          0.73040       -0.40680        1.27910
C         -0.05060       -0.00660        0.03180
C          2.20820        0.01230        1.30130
H         -0.70680        1.92550        0.67770
H         -0.49830        1.81510       -1.06620
H          1.87300        2.07210       -0.93040
H          1.24040        3.23000        0.22630
H          3.22990        1.92750        1.14760
H          2.22220        1.18580        3.36960
H          0.56020       -1.44580        1.57740
H         -1.08010       -0.37770        0.08750
H          0.41740       -0.48850       -0.83700
H          3.06010       -0.64630        1.19670
