17
gdb 20189	3.4311	2.61265	2.01935	1.6385	66.43	-0.2312	0.0833	0.3145	726.7922	0.14568	-363.81225	-363.806332	-363.805388	-363.841939	24.294
C         -0.05010        1.45880       -0.04420
C          1.49740        1.52070        0.07130
C          2.00160        1.95880        1.44350
O          1.12120        1.51120        2.46270
C          0.87810        0.11470        2.46570
C          0.74210       -0.53560        1.10110
C          1.45890       -0.00850       -0.07160
N         -0.05810       -0.04910       -0.04990
H         -0.63430        1.91820        0.75590
H         -0.41740        1.80240       -1.01350
H          2.00330        2.05370       -0.73510
H          3.02630        1.58430        1.60990
H          2.01850        3.04910        1.53680
H          1.69640       -0.41440        2.98640
H         -0.03240       -0.02650        3.05820
H          0.66650       -1.61880        1.17160
H          2.04840       -0.61020       -0.75600
