18
gdb 10149	2.67464	1.25618	0.90075	2.3004	75.29	-0.2517	-0.0314	0.2203	1287.6577	0.150233	-347.784756	-347.775091	-347.774146	-347.820062	33.547
C          0.03160        1.55320        0.02320
C          0.01480        0.02380       -0.04800
C         -1.40410       -0.54870        0.03290
C         -1.44790       -2.10270       -0.01860
C         -0.82500       -2.66950        1.26110
O          0.25810       -3.18490        1.31840
C         -2.81330       -2.59860       -0.14150
C         -3.94240       -3.00790       -0.19500
H          1.05260        1.94020       -0.04540
H         -0.54870        1.99570       -0.79400
H         -0.39790        1.91130        0.96520
H          0.48280       -0.30780       -0.98370
H          0.63110       -0.39040        0.75860
H         -1.89970       -0.21300        0.95320
H         -2.01210       -0.16980       -0.79560
H         -0.83560       -2.45430       -0.85710
H         -1.46510       -2.54020        2.16250
H         -4.93700       -3.37400       -0.26420
