20
gdb 16593	2.42364	2.07586	1.85855	1.4156	74.28	-0.2435	0.0728	0.3163	894.0166	0.176915	-348.97344	-348.965146	-348.964202	-349.00534	32.314
C         -0.43660        1.55910        0.28880
C         -0.06930        0.08440        0.15050
C          0.36890       -0.45960       -1.21900
C          1.71060        0.01050       -1.65490
O          2.12430        1.34050       -1.47020
C          1.67050       -1.03750       -0.58470
C          1.25160       -0.49570        0.79180
C          2.20970        0.40580        1.56650
H          0.36240        2.21050       -0.06580
H         -1.33560        1.78120       -0.29780
H         -0.65810        1.80870        1.33300
H         -0.91040       -0.51780        0.50960
H         -0.30790       -0.92690       -1.92620
H          1.99740       -0.39530       -2.62730
H          3.08330        1.33790       -1.38130
H          2.12860       -2.00880       -0.74100
H          0.97880       -1.34000        1.43310
H          2.47710        1.29730        0.99730
H          1.76240        0.72870        2.51330
H          3.13240       -0.13460        1.80890
