22
gdb 7825	3.18267	1.61044	1.1539	1.1982	78.74	-0.2424	0.0885	0.331	1112.1257	0.20127	-350.232307	-350.223909	-350.222964	-350.264552	32.798
C         -0.03370        1.57470       -0.01120
C          0.02430        0.04540       -0.00860
C          0.71930       -0.51390       -1.25970
C          0.84150       -2.03630       -1.17280
O          1.51630       -2.44610        0.00290
C          0.85300       -2.03350        1.19360
C          1.63970       -2.60850        2.36230
C          0.72810       -0.50510        1.24280
H          0.97460        2.00520       -0.01600
H         -0.55970        1.95100       -0.89530
H         -0.55250        1.95460        0.87560
H         -1.00830       -0.33640       -0.00460
H          0.16820       -0.23730       -2.16700
H          1.72450       -0.08040       -1.34520
H         -0.16400       -2.49280       -1.20930
H          1.41880       -2.43760       -2.01140
H         -0.16600       -2.46450        1.19560
H          2.65560       -2.20130        2.37440
H          1.15510       -2.36200        3.31190
H          1.70880       -3.69630        2.27710
H          1.73670       -0.07500        1.31600
H          0.18440       -0.20930        2.14860
