19
gdb 6163	3.47674	1.40799	1.26793	3.9423	73.59	-0.2362	-0.0155	0.2207	1069.6917	0.162826	-365.06743	-365.058188	-365.057244	-365.101137	33.674
C          0.16190        1.44000       -0.60230
C          0.01850        0.25070        0.33290
O          0.90250       -0.07790        1.09110
C         -1.30450       -0.45810        0.25950
N         -1.37400       -1.85180        0.74500
C         -2.11280       -0.83250        1.48430
C         -1.58950       -0.54510        2.87590
C         -3.62270       -0.78580        1.34660
H          1.11850        1.93340       -0.42880
H          0.10330        1.10960       -1.64630
H         -0.65750        2.15200       -0.44900
H         -1.89850       -0.20040       -0.61590
H         -1.99810       -2.38310        0.14120
H         -0.50260       -0.61400        2.89970
H         -1.89430        0.45330        3.20860
H         -2.00330       -1.27400        3.58180
H         -4.08610       -1.53820        1.99550
H         -4.01750        0.19160        1.64370
H         -3.94120       -0.98130        0.31730
