13
gdb 4685	6.53493	1.33041	1.11306	4.2596	69.5	-0.2437	-0.0324	0.2113	998.6408	0.097519	-357.709717	-357.702586	-357.701642	-357.741496	25.246
C         -0.00140        1.47660        0.05790
C         -0.00360       -0.01210       -0.02650
N         -0.06150       -0.72300       -1.14050
C         -0.03900       -2.03190       -0.75820
C          0.03380       -2.13360        0.61560
N          0.05570       -0.82180        1.06540
C          0.08140       -3.24350        1.48180
N          0.12100       -4.15030        2.20330
H          0.91020        1.85270        0.53510
H         -0.05740        1.88190       -0.95260
H         -0.85660        1.84980        0.63190
H         -0.07550       -2.84060       -1.47150
H          0.10650       -0.53720        2.03030
