12
gdb 4378	4.31714	1.88156	1.31043	0.2116	58.75	-0.2583	-0.0205	0.2378	838.1371	0.08701	-414.741166	-414.735196	-414.734251	-414.771222	23.05
O          0.02720        1.34400       -0.03410
C          0.05230        0.00440       -0.05690
C          0.04600       -0.65880       -1.27810
C          0.07370       -2.04560       -1.19270
O          0.07020       -2.77550       -2.31660
N          0.10430       -2.71060       -0.03210
C          0.10680       -1.95490        1.06220
N          0.08250       -0.62660        1.12260
H          0.03690        1.59750        0.90020
H          0.02150       -0.13540       -2.22320
H          0.09210       -3.70180       -2.03590
H          0.13160       -2.48160        2.01330
