19
gdb 16462	3.10167	2.75337	1.79877	1.5931	74.76	-0.2267	0.0926	0.3193	798.2364	0.167768	-327.875043	-327.868488	-327.867544	-327.905189	27.209
C          0.01960        1.53290       -0.05370
C          0.03040        0.01920       -0.00620
C          0.42540       -0.71410       -1.28900
C          0.29580       -2.16740       -0.77460
N         -0.12770       -2.00790        0.63550
C          0.64070       -0.80640        1.18530
C         -0.58040       -0.49550        2.06880
C         -1.10770       -0.83520        0.66340
H          1.01160        1.91910       -0.31450
H         -0.67910        1.89120       -0.81830
H         -0.27170        1.98430        0.89890
H         -0.25280       -0.48470       -2.11810
H          1.43970       -0.45680       -1.61300
H         -0.45680       -2.75140       -1.31290
H          1.23750       -2.72350       -0.80720
H          1.69190       -0.89360        1.47340
H         -0.79930       -1.23170        2.84270
H         -0.70320        0.52770        2.42370
H         -2.14160       -0.95680        0.32920
