24
gdb 5807	3.0718	1.22601	1.1181	1.5429	81.74	-0.2603	0.0631	0.3234	1251.6418	0.220088	-351.422914	-351.412226	-351.411282	-351.457936	40.239
C          0.35850        0.00720        1.53010
C         -0.02480        0.07780        0.04340
C          1.14450       -0.39920       -0.83030
C         -1.32740       -0.71540       -0.18680
C         -2.06390       -0.57150       -1.53490
C         -3.40150       -1.32620       -1.45740
C         -2.30860        0.89470       -1.92200
O         -1.23450       -1.20070       -2.52370
H          1.27200        0.57760        1.72860
H         -0.43420        0.40760        2.17160
H          0.54300       -1.02930        1.83780
H         -0.21800        1.13330       -0.19080
H          1.38060       -1.44880       -0.61650
H          0.90950       -0.32950       -1.89260
H          2.04410        0.19170       -0.62490
H         -1.12140       -1.78430       -0.04220
H         -2.04160       -0.43140        0.59650
H         -4.07320       -0.88130       -0.71620
H         -3.91370       -1.30030       -2.42690
H         -3.23280       -2.37350       -1.19080
H         -1.36590        1.41840       -2.09540
H         -2.89900        0.95060       -2.84450
H         -2.86440        1.42790       -1.14350
H         -1.68410       -1.12520       -3.37230
