16
gdb 4567	5.71748	1.52122	1.21964	0.	75.17	-0.2389	-0.0433	0.1956	991.716	0.131192	-342.850556	-342.842816	-342.841872	-342.883431	27.457
C          0.02220        1.51370        0.01070
C          0.02290        0.01010       -0.00790
C         -0.35200       -0.72280       -1.13820
N         -0.35710       -2.05330       -1.17160
C          0.01900       -2.69150       -0.05670
C          0.01980       -4.19520       -0.07530
C          0.39400       -1.95860        1.07360
N          0.39900       -0.62810        1.10700
H          1.02350        1.89500        0.23520
H         -0.30060        1.92640       -0.94830
H         -0.64550        1.88720        0.79370
H         -0.65890       -0.21080       -2.04800
H          0.34280       -4.60790        0.88360
H         -0.98160       -4.57640       -0.29960
H          0.68730       -4.56870       -0.85850
H          0.70080       -2.47060        1.98340
