13
gdb 23742	3.3342	2.31046	1.37632	1.439	62.12	-0.2551	-0.0445	0.2106	822.7224	0.096222	-402.803939	-402.797267	-402.796323	-402.835209	24.084
C         -0.03040        1.51170       -0.00100
C         -0.00770        0.01140       -0.00510
N         -0.04180       -0.64350       -1.17040
C         -0.02000       -1.97700       -1.12730
N          0.03290       -2.74790       -0.04220
C          0.06730       -2.10240        1.12690
C          0.04830       -0.72120        1.18040
F          0.08310       -0.08560        2.35420
H          0.86030        1.91470        0.49260
H         -0.07230        1.87750       -1.02710
H         -0.89610        1.88780        0.55440
H         -0.04840       -2.48960       -2.08530
H          0.11090       -2.68930        2.04100
