15
gdb 3628	4.40559	4.3555	3.24966	0.0269	61.98	-0.2174	0.0936	0.3111	514.9266	0.128173	-271.336957	-271.332362	-271.331418	-271.364834	20.053
C         -0.01290        1.55960       -0.07470
C          1.46980        1.85260        0.05900
C          2.29560        0.71650       -0.51680
C          2.13370        0.84840        0.98370
C          1.17070       -0.36630        0.98620
C          0.03930        0.04960        0.06360
C          1.33190       -0.49760       -0.51440
H         -0.60460        2.03100        0.71850
H         -0.41510        1.87630       -1.04390
H          1.85980        2.86260        0.01220
H          3.17470        0.84650       -1.13260
H          2.86470        1.09900        1.73980
H          1.09500       -1.13340        1.74430
H         -0.85570       -0.56010        0.02090
H          1.40340       -1.38470       -1.12830
