11
gdb 738	9.45338	3.55163	2.62373	0.5006	47.14	-0.2584	0.0012	0.2596	481.1012	0.087282	-281.482952	-281.47767	-281.476726	-281.511891	18.12
C         -0.02560        1.50180       -0.01050
C          0.00160        0.00830        0.02690
N         -0.07770       -0.72940       -1.08470
N         -0.02030       -1.97680       -0.63300
N          0.08950       -2.13020        0.67810
C          0.10550       -0.87360        1.12170
H          0.88800        1.92840        0.41660
H         -0.11630        1.84680       -1.04220
H         -0.87000        1.90010        0.56180
H         -0.05860       -2.76630       -1.25670
H          0.18840       -0.66070        2.17590
