10
gdb 238	9.72555	2.25446	1.8741	6.7117	43.68	-0.2741	0.0051	0.2792	603.7082	0.072367	-301.394865	-301.38819	-301.387246	-301.426589	21.668
N         -0.07610        1.33990       -0.07270
C          0.09150       -0.00010        0.10860
O          1.16270       -0.52440        0.30060
C         -1.23810       -0.78590        0.10090
C         -1.04520       -2.21560       -0.10350
N         -0.93460       -3.35190       -0.27350
H          0.74680        1.92030       -0.08400
H         -0.95900        1.75290       -0.31590
H         -1.73320       -0.62570        1.06650
H         -1.91650       -0.40070       -0.66860
