18
gdb 14572	13.23166	0.6034	0.58538	0.0008	80.64	-0.2586	0.0519	0.3106	1815.4455	0.150587	-310.607973	-310.59836	-310.597416	-310.642949	34.071
C         -0.01980       -1.24960       -0.00450
C         -0.03520       -0.04770        0.00240
C         -0.01900        1.40990        0.01070
C          1.40690        1.99720       -0.00090
C          1.40730        3.52740        0.00790
C          2.83310        4.11460       -0.00360
C          2.84930        5.57230        0.00460
C          2.83430        6.77420        0.01150
H         -0.01970       -2.31120       -0.01040
H         -0.57550        1.78620       -0.85800
H         -0.55720        1.77610        0.89500
H          1.95490        1.61590        0.86900
H          1.93660        1.62600       -0.88630
H          0.85920        3.90860       -0.86200
H          0.87750        3.89860        0.89330
H          3.38960        3.73840        0.86500
H          3.37130        3.74840       -0.88790
H          2.83450        7.83580        0.01670
