13
gdb 21450	5.90298	1.44842	1.16304	4.9379	62.63	-0.2201	-0.0086	0.2115	944.8917	0.097442	-394.768942	-394.762214	-394.761269	-394.800175	24.584
N          0.17750        1.29310        0.00440
C          0.05080        0.02420        0.00160
N         -1.17190       -0.59540        0.01110
C         -2.40520        0.04790        0.02500
C         -2.71600        1.37720        0.03230
O         -4.05590        1.52310        0.04560
N         -4.66050        0.28080        0.04720
C         -3.67960       -0.58710        0.03510
H          1.16080        1.55080       -0.00400
H          0.87110       -0.70210       -0.00850
H         -1.18150       -1.60060        0.00820
H         -2.11400        2.26650        0.02940
H         -3.90650       -1.64450        0.03390
