13
gdb 6427	3.88565	1.57516	1.36174	4.0862	58.92	-0.2983	-0.0151	0.2832	895.9679	0.094339	-398.639678	-398.632322	-398.631378	-398.671404	26.56
C         -0.29410        1.65470       -0.02400
C          0.00200        0.16410       -0.07160
C          0.83460       -0.36170       -1.27200
C          1.89080       -0.64480       -0.20640
O          2.99250       -1.07470       -0.14670
O          1.10830       -0.18970        0.83520
C         -1.18230       -0.64020        0.24220
N         -2.13180       -1.25910        0.46500
H          0.61430        2.21580       -0.25730
H         -1.06990        1.91000       -0.75100
H         -0.64070        1.94120        0.97150
H          0.44950       -1.25080       -1.77170
H          1.11500        0.39200       -2.00900
