19
gdb 13985	4.61789	1.25564	1.13839	0.8502	72.56	-0.2472	0.089	0.3362	1121.3218	0.165584	-365.008523	-365.000347	-364.999403	-365.041526	29.915
C          0.45700        1.39700       -0.04010
O          0.80580        0.03720       -0.12770
C          0.06240       -0.65690       -1.10970
C          0.45600       -2.09960       -1.07850
C          0.54290       -2.98800        0.17330
C          1.73910       -3.75020       -0.49040
C          1.60520       -2.83390       -1.71460
N          0.26100       -2.89670       -2.28350
H          0.64250        1.92950       -0.98660
H         -0.60450        1.53170        0.22360
H          1.07460        1.84450        0.74260
H         -1.02000       -0.55230       -0.91080
H          0.24760       -0.24930       -2.11600
H          0.84970       -2.42880        1.05850
H         -0.35730       -3.56630        0.40960
H          2.67410       -3.60750        0.05590
H          1.60680       -4.82000       -0.68510
H          2.40600       -2.46970       -2.34850
H         -0.20450       -3.78420       -2.09900
