14
gdb 3006	7.37301	1.55423	1.4241	1.9444	55.35	-0.2666	-0.0386	0.228	838.978	0.113153	-361.698233	-361.691131	-361.690186	-361.729684	24.989
O          0.10300        1.42030       -0.20630
C          0.05360        0.03440       -0.35020
C         -1.23210       -0.54110        0.21600
O         -2.08000        0.20870        0.66700
C         -1.41660       -2.01650        0.19300
C         -1.93210       -2.64250        1.45680
N         -2.79140       -2.53470        0.28970
H         -0.74890        1.66500        0.18900
H          0.11630       -0.26830       -1.41040
H          0.90410       -0.45300        0.15560
H         -0.74330       -2.58470       -0.44220
H         -1.60250       -3.64660        1.70660
H         -2.10410       -1.97580        2.29690
H         -3.40550       -1.72820        0.40880
