17
gdb 6322	4.40772	1.10139	1.06971	5.2768	67.1	-0.2403	-0.0282	0.212	1166.1797	0.139276	-401.042325	-401.03286	-401.031916	-401.07785	31.743
C         -0.13820        1.45610        0.04460
N          0.03980        0.01330       -0.00690
C         -0.06800       -0.74200        1.21130
C         -1.49770       -0.84490        1.77150
C         -1.61950       -1.51230        3.12790
O         -2.44710       -0.41670        1.16320
C          0.23240       -0.60970       -1.20710
O          0.30390       -0.06100       -2.28420
H          0.59300        1.90700        0.72640
H          0.01900        1.84140       -0.96270
H         -1.14790        1.71010        0.37900
H          0.29280       -1.76400        1.03690
H          0.58480       -0.32090        1.99060
H         -1.08840       -2.47030        3.14610
H         -1.15990       -0.87910        3.89600
H         -2.67140       -1.66430        3.37080
H          0.33300       -1.70710       -1.08410
