16
gdb 21952	6.6749	1.04397	0.9694	2.8859	66.56	-0.2415	0.0244	0.2659	1175.6868	0.132255	-379.937794	-379.929953	-379.929008	-379.971475	27.839
O         -0.10050        1.41780        0.01170
C         -0.03530        0.00730        0.15540
C         -1.39430       -0.56390       -0.25490
C         -1.45700       -2.05290       -0.10190
N         -1.19560       -2.85350       -1.13620
N         -1.30920       -4.10050       -0.63960
C         -1.63660       -4.12290        0.67420
C         -1.74060       -2.80610        1.06480
H          0.76270        1.78160        0.22820
H          0.74800       -0.43010       -0.48220
H          0.18860       -0.28020        1.19550
H         -2.16690       -0.08530        0.35640
H         -1.58560       -0.29530       -1.29750
H         -1.16930       -4.88350       -1.25470
H         -1.77170       -5.04900        1.21050
H         -1.99140       -2.43660        2.04610
