17
gdb 2443	3.95648	3.33171	2.6153	1.418	62.84	-0.2343	0.0847	0.319	613.3067	0.151737	-309.704732	-309.699163	-309.698219	-309.733687	22.921
C         -0.00570        1.54560       -0.04630
C          1.54750        1.45390       -0.00690
C          1.36280        0.13610        0.80660
C          0.02350       -0.00360        0.02860
O          0.20080       -0.55040       -1.27230
C          1.47480       -0.26190       -1.84480
C          2.03830        1.11370       -1.42460
H         -0.41830        1.99340        0.86210
H         -0.47610        1.98490       -0.93000
H          2.11040        2.27590        0.44070
H          2.10730       -0.65940        0.72180
H          1.17290        0.33810        1.86350
H         -0.81300       -0.54200        0.47840
H          2.18740       -1.04650       -1.55230
H          1.34840       -0.33200       -2.92900
H          1.71870        1.90160       -2.11660
H          3.13300        1.07200       -1.46650
