14
gdb 2070	4.99993	2.68985	1.85458	4.8303	55.52	-0.2435	0.0454	0.2889	670.7463	0.115499	-361.726913	-361.720737	-361.719793	-361.757362	22.436
N         -0.07280        1.28390        0.32830
C         -0.00950        0.08630       -0.06470
O          1.17550       -0.56020       -0.25390
C          1.24850       -1.78700       -0.99130
C          0.03380       -2.65840       -0.72800
C         -1.19090       -1.80210       -0.99560
O         -1.15930       -0.60570       -0.21470
H          0.86990        1.65000        0.44480
H          1.32820       -1.55340       -2.06250
H          2.18140       -2.26000       -0.67640
H          0.04280       -3.53450       -1.38410
H          0.03110       -3.00530        0.31050
H         -1.25210       -1.53810       -2.06130
H         -2.12090       -2.30150       -0.71620
