12
gdb 1119	5.89401	1.77448	1.42578	5.8161	48.57	-0.2545	0.0149	0.2695	798.2635	0.090779	-393.905418	-393.898035	-393.897091	-393.937268	26.151
N         -0.13370        1.36470       -0.07470
C          0.12120        0.01380        0.13170
O          1.19730       -0.42320        0.44960
N         -1.04890       -0.75340        0.00880
C         -1.09380       -2.15030       -0.13070
N         -2.37370       -2.64220        0.09830
O         -0.16600       -2.83480       -0.47810
H          0.71400        1.91190       -0.10330
H         -0.80480        1.61310       -0.78670
H         -1.92830       -0.26120        0.02170
H         -2.92020       -2.20920        0.82830
H         -2.39630       -3.65130        0.11480
