19
gdb 9857	4.47045	0.98693	0.95069	1.4657	80.06	-0.2394	0.0508	0.2902	1327.0527	0.163629	-327.883568	-327.874016	-327.873072	-327.919355	33.544
C          0.09010        1.43490        0.31660
C          0.03720        0.00160        0.06500
C         -0.00010       -1.18380       -0.14380
C         -0.06450       -2.62380       -0.38620
C         -1.44480       -3.22640       -0.11600
C         -2.55100       -2.74280       -1.02830
C         -1.48460       -4.60030        0.44700
N         -1.84290       -3.43800        1.28500
H          0.92130        1.69230        0.98240
H          0.22390        1.99920       -0.61300
H         -0.83290        1.78930        0.78870
H          0.22030       -2.83470       -1.42650
H          0.67890       -3.13600        0.23910
H         -2.35240       -3.02600       -2.06830
H         -3.50790       -3.17390       -0.72540
H         -2.63600       -1.65250       -0.98330
H         -2.31280       -5.26240        0.20800
H         -0.54180       -5.10970        0.63220
H         -1.07230       -3.20560        1.90750
