16
gdb 13313	5.76328	1.20017	1.05989	1.3286	66.12	-0.2538	0.0502	0.304	1084.5598	0.129966	-383.700328	-383.692463	-383.691519	-383.733518	28.071
C         -0.08960       -1.20400        0.02380
C         -0.02470       -0.00590        0.08350
C          0.06490        1.44690        0.13640
C          1.49020        1.98080       -0.08470
C          1.56060        3.52670       -0.10170
O          2.72180        3.82360        0.65430
C          2.77670        2.80600        1.62040
O          2.36010        1.61500        0.98600
H         -0.14770       -2.26320       -0.01940
H         -0.59090        1.88430       -0.62940
H         -0.29870        1.81250        1.10510
H          1.89680        1.55160       -1.00730
H          1.67920        3.94790       -1.10190
H          0.66300        3.96350        0.36590
H          3.80810        2.69480        1.96650
H          2.11300        3.04080        2.47340
