17
gdb 20535	4.38656	1.40348	1.38481	3.0222	70.33	-0.2509	-0.0055	0.2454	984.851	0.142326	-363.871271	-363.863428	-363.862483	-363.903891	28.607
C         -0.04500        1.54900        0.02090
C         -0.00770        0.00890        0.03240
C          0.73280       -0.52500        1.27340
C         -1.38770       -0.56530       -0.06140
C         -2.01710       -1.35420       -0.97600
C         -3.32100       -1.51740       -0.43820
N         -3.47260       -0.88650        0.69910
O         -2.24050       -0.27850        0.94150
H          0.97170        1.95220        0.05340
H         -0.53570        1.92740       -0.88040
H         -0.59190        1.92900        0.88860
H          0.52520       -0.33190       -0.86290
H          0.21510       -0.22750        2.18980
H          0.79460       -1.61700        1.25910
H          1.75010       -0.12370        1.30860
H         -1.61360       -1.75580       -1.89040
H         -4.15530       -2.07400       -0.84190
