18
gdb 12504	3.54705	1.83249	1.27519	1.0094	79.21	-0.2097	-0.0218	0.1879	974.8652	0.154663	-347.809623	-347.801999	-347.801055	-347.841571	28.877
C          0.07080        1.53070        0.08130
C          0.01500        0.03520       -0.05460
C          0.07100       -0.57970       -1.24690
C         -0.02170       -2.01060       -1.51410
C          0.07140       -3.04700       -0.66720
C          0.40500       -3.04170        0.79610
O          0.82270       -1.81530        1.34370
C         -0.11280       -0.75180        1.23180
H          0.95020        1.84210        0.66070
H          0.10970        2.02500       -0.89270
H         -0.80500        1.91550        0.62130
H          0.15250        0.04650       -2.13330
H         -0.21820       -2.25600       -2.55600
H         -0.08180       -4.04770       -1.06900
H         -0.44850       -3.45970        1.36370
H          1.24500       -3.72820        0.96930
H          0.07490       -0.09510        2.08840
H         -1.14110       -1.13580        1.33560
