14
gdb 1428	5.32943	1.59416	1.25372	4.3756	58.19	-0.2587	-0.0171	0.2416	919.9046	0.110524	-361.742598	-361.734326	-361.733382	-361.775876	27.02
C          0.20020        1.50850        0.23800
N          0.25770        0.06750        0.14340
C          0.59030       -0.53510       -0.90930
C          1.03350       -0.03940       -2.25740
O          0.61220       -1.92450       -0.92500
C         -0.12990       -2.62310       -0.01040
O         -0.03350       -3.80790        0.07740
H          0.86530        1.83680        1.04420
H          0.46860        2.05510       -0.67500
H         -0.81450        1.80500        0.52620
H          1.15550        1.04230       -2.28340
H          1.98280       -0.51410       -2.52120
H          0.30380       -0.33530       -3.01780
H         -0.79400       -1.97620        0.57620
