12
gdb 11190	5.28108	1.44463	1.2059	4.8246	55.27	-0.2869	-0.0135	0.2735	915.7375	0.085674	-414.71188	-414.705162	-414.704217	-414.743292	23.794
O         -0.03790       -0.04120       -0.04950
C         -0.06450        1.15160       -0.00930
N         -1.11240        1.98320        0.32310
C         -0.84770        3.35700       -0.04680
C          0.70460        3.31350       -0.06580
O          1.03440        1.94090       -0.28630
C          1.29510        4.15530       -1.10750
N          1.74180        4.85260       -1.91180
H         -2.03960        1.59130        0.28380
H         -1.24950        3.62250       -1.03240
H         -1.21650        4.07230        0.69170
H          1.11020        3.61950        0.90600
