12
gdb 2556	3.68672	2.55057	1.70912	4.1164	61.3	-0.2669	0.0064	0.2733	716.2503	0.089077	-286.203815	-286.197043	-286.196098	-286.234302	24.791
C          0.01620       -1.17640       -0.00590
C         -0.00570        0.02470       -0.00290
C         -0.01500        1.46300        0.01170
C          0.50020        2.19190        1.26280
C          1.32820        2.20980        0.02500
C         -1.10030        2.09260       -0.70510
N         -1.96210        2.61330       -1.27360
H          0.02640       -2.23840       -0.01400
H         -0.03100        3.09240        1.54630
H          0.80010        1.55040        2.08200
H          2.20830        1.58090       -0.02320
H          1.37520        3.12280       -0.55590
