18
gdb 8334	5.40632	1.31186	1.28388	2.559	67.71	-0.2474	0.0644	0.3118	1018.1531	0.153099	-384.906395	-384.898614	-384.89767	-384.939047	28.701
C         -0.70520        1.34960        0.19150
C          0.04990        0.04480        0.04970
C          0.79520       -0.23710       -1.27300
C          2.05450       -0.29870       -0.39280
C          2.97940       -1.53130       -0.33510
O          4.10750       -0.75010       -0.77980
C          3.35100        0.47470       -0.69080
O          1.30850        0.04960        0.77830
H         -0.09760        2.19100       -0.15640
H         -1.63060        1.32070       -0.39420
H         -0.96910        1.52680        1.23880
H         -0.57450       -0.79380        0.38560
H          0.53270       -1.16080       -1.79200
H          0.78150        0.59260       -1.98420
H          3.11140       -1.91810        0.68380
H          2.75220       -2.35850       -1.01890
H          3.38300        1.05250       -1.62290
H          3.67140        1.10740        0.14740
