21
gdb 13811	2.89305	1.45215	1.30294	1.5182	75.55	-0.2189	0.0687	0.2876	1087.5176	0.18713	-366.22978	-366.22031	-366.219366	-366.263703	34.931
C          2.00140        0.84340       -0.51230
C          1.53920       -0.59890       -0.73130
C          2.59760       -1.41140       -1.48210
N          1.32090       -1.22100        0.58400
C          0.09400       -0.90870        1.30470
C          0.32300       -2.27540        0.75160
C         -0.54290       -2.84190       -0.36810
O         -1.36310       -1.90800       -1.05280
H          2.91940        0.86370        0.08410
H          2.19790        1.33450       -1.47040
H          1.24110        1.42700        0.01630
H          0.61300       -0.58620       -1.32410
H          3.53390       -1.43230       -0.91520
H          2.27560       -2.44590       -1.63540
H          2.79490       -0.97210       -2.46510
H          0.19180       -0.71230        2.36990
H         -0.64310       -0.28880        0.79550
H          0.64630       -3.05600        1.44140
H          0.08840       -3.29520       -1.14010
H         -1.14800       -3.65560        0.06160
H         -2.01810       -1.58090       -0.42790
