13
gdb 20994	3.55375	2.17164	1.35951	3.4588	55.05	-0.2159	0.0546	0.2706	830.6612	0.096215	-431.938783	-431.931235	-431.930291	-431.971179	26.69
C         -0.01970        1.52550        0.01060
N          0.03350        0.07620        0.00240
C          0.07330       -0.77840       -1.06910
O          0.04000       -0.27860       -2.31370
N          0.13530       -2.02320       -0.71380
N          0.14380       -2.03100        0.69410
C          0.08620       -0.79020        1.06380
O          0.06800       -0.30400        2.31410
H          0.98390        1.96230        0.00680
H         -0.55830        1.86600       -0.87500
H         -0.54720        1.85620        0.90660
H          0.05250       -1.03640       -2.91290
H          0.08760       -1.06840        2.90480
