11
gdb 860	7.03262	2.20898	1.68098	1.7847	47.72	-0.1866	0.0565	0.2431	666.0864	0.079974	-376.613178	-376.60711	-376.606166	-376.642645	22.913
O          0.11700        1.28140        0.09820
C          0.08750       -0.05930        0.01800
N          0.18840       -0.77920       -1.07370
C          0.10160       -2.08080       -0.62980
O          0.16890       -3.11280       -1.49880
C         -0.05120       -2.14770        0.72430
N         -0.05770       -0.80300        1.13120
H          0.22710        1.60710       -0.80330
H          0.27690       -2.72340       -2.37400
H         -0.15150       -2.96540        1.41370
H         -0.15200       -0.45150        2.06780
