20
gdb 18080	4.79229	1.09882	1.05841	1.5794	74.94	-0.2319	0.0783	0.3102	1218.3419	0.176997	-348.961888	-348.953638	-348.952694	-348.995284	30.55
C         -0.00000        1.52750       -0.07150
C         -0.09230        0.00170       -0.15040
C         -1.47500       -0.53660        0.24350
C         -1.55310       -2.04610        0.15990
C         -2.83240       -2.86900        0.15100
C         -3.88080       -2.20560       -0.73530
O         -2.93490       -2.07440       -1.83100
C         -1.95010       -2.79250       -1.07830
H          0.99510        1.88330       -0.35620
H         -0.72710        2.00200       -0.73990
H         -0.20350        1.88550        0.94410
H          0.14180       -0.33060       -1.16950
H          0.67140       -0.44640        0.49950
H         -1.71860       -0.21010        1.26360
H         -2.22880       -0.09700       -0.41810
H         -0.76750       -2.56720        0.70720
H         -3.01530       -3.68390        0.83860
H         -4.69610       -2.88100       -1.01820
H         -4.29470       -1.24080       -0.41950
H         -1.35310       -3.52680       -1.60780
