15
gdb 2537	3.30039	2.16055	1.37901	3.1904	58.12	-0.2521	0.0163	0.2684	861.195	0.124573	-341.826148	-341.817938	-341.816994	-341.858698	28.043
C          0.05160        1.36140       -0.09060
O         -0.17410       -0.01970        0.13680
C          0.61050       -0.57260        1.16990
C          0.04590       -1.96250        1.47990
N         -1.30560       -1.80560        2.00520
C          2.03650       -0.65010        0.77900
N          3.14850       -0.70240        0.46900
H          1.08380        1.55390       -0.41200
H         -0.63270        1.66480       -0.88500
H         -0.15670        1.95350        0.81220
H          0.53870        0.04360        2.07970
H          0.12680       -2.56960        0.56400
H          0.67740       -2.42920        2.24270
H         -1.89890       -1.42260        1.27590
H         -1.68810       -2.71170        2.25380
