20
gdb 13148	3.58868	1.12001	0.94994	2.2572	70.94	-0.2547	0.0755	0.3302	1256.1616	0.176663	-386.120208	-386.111242	-386.110298	-386.153999	32.957
O         -0.31380        1.44460        0.41180
C         -0.10390        0.07020        0.12280
C         -1.46340       -0.61740        0.11190
C         -1.37090       -2.11980       -0.15060
C         -0.98110       -2.97940        1.09210
C         -2.48520       -3.28830        1.32890
C         -2.75420       -2.85280       -0.13420
O         -3.93040       -2.16080       -0.46560
H          0.54070        1.88550        0.41340
H          0.38200       -0.06290       -0.85770
H          0.55020       -0.39870        0.87540
H         -1.94940       -0.41590        1.07640
H         -2.08390       -0.14570       -0.65930
H         -0.77430       -2.29380       -1.05270
H         -0.41250       -3.87140        0.81770
H         -0.45010       -2.46720        1.89830
H         -2.77110       -4.30130        1.62110
H         -2.93500       -2.58580        2.03870
H         -2.72890       -3.71670       -0.80510
H         -4.02390       -1.41910        0.14120
