13
gdb 871	6.9795	2.09462	1.62747	2.6666	56.19	-0.1933	0.0472	0.2404	727.3056	0.102709	-340.676441	-340.669701	-340.668757	-340.70692	24.382
C         -0.05970        1.47940        0.03420
C         -0.00850       -0.00940       -0.02920
N         -0.05160       -0.74380       -1.11270
C          0.02560       -2.06300       -0.69760
C          0.11580       -2.10660        0.66580
O          0.21330       -3.08590        1.59820
N          0.09420       -0.80350        1.09410
H          0.84320        1.90460        0.48890
H         -0.14500        1.86310       -0.98330
H         -0.92000        1.83850        0.61200
H          0.01120       -2.88510       -1.39620
H          0.21710       -3.93480        1.14550
H          0.14550       -0.51070        2.05550
