17
gdb 13317	4.94252	1.24794	1.11444	4.3445	67.87	-0.2653	0.0294	0.2947	1063.9083	0.144039	-363.884357	-363.876721	-363.875777	-363.917159	27.421
N         -0.27470       -1.05200        0.27990
C         -0.14110        0.09530        0.23800
C          0.06020        1.54150        0.17570
C          1.51420        1.92660       -0.18020
C          1.67490        3.46820       -0.27220
C          2.42590        3.83930        1.03380
O          2.39440        2.67790        1.85320
C          2.48150        1.57600        0.96550
H         -0.63570        1.95710       -0.56120
H         -0.20050        1.97630        1.14770
H          1.79590        1.43020       -1.11170
H          2.24760        3.75730       -1.15630
H          0.70420        3.96740       -0.33770
H          3.46690        4.12120        0.81310
H          1.96160        4.65560        1.59220
H          2.21370        0.66950        1.51370
H          3.50730        1.46130        0.57870
