22
gdb 5895	4.15108	0.906	0.88821	0.331	75.57	-0.2477	0.064	0.3117	1438.7483	0.196716	-387.337308	-387.326756	-387.325812	-387.372713	37.888
C          0.08830        1.36970       -0.11560
O          0.04630       -0.03460       -0.06580
C         -1.26870       -0.53720        0.06850
C         -1.18680       -2.05820        0.12330
C         -2.54770       -2.78300        0.05370
C         -2.32450       -4.30190        0.05230
C         -3.47820       -2.38500        1.20350
O         -3.24890       -2.39990       -1.13900
H          1.13520        1.66450       -0.22400
H         -0.48310        1.76760       -0.96990
H         -0.31480        1.82560        0.80340
H         -1.73420       -0.13100        0.98160
H         -1.89450       -0.22580       -0.78230
H         -0.56910       -2.38790       -0.72280
H         -0.65150       -2.36140        1.03060
H         -1.85010       -4.63770        0.98000
H         -3.28040       -4.82190       -0.05790
H         -1.67360       -4.59940       -0.77860
H         -3.73430       -1.32430        1.14970
H         -4.40870       -2.95670        1.14580
H         -3.00760       -2.58230        2.17110
H         -2.72730       -2.69650       -1.89290
