16
gdb 18435	2.99898	2.12744	1.63756	3.1716	68.58	-0.2531	0.0085	0.2616	834.9102	0.131217	-342.750549	-342.743253	-342.742308	-342.781867	27.489
C         -0.48580        1.48960        0.00370
C         -0.00860        0.05010       -0.01050
C          1.04940       -0.47770       -1.02440
C          1.78610       -1.03210        0.19210
C          2.19180        0.04940        1.12350
C          2.60900        1.34990        0.66230
N          2.99400        2.38180        0.30700
N          0.79370       -0.45870        1.17790
H          0.33090        2.21110       -0.03150
H         -1.13180        1.66790       -0.86290
H         -1.07660        1.67740        0.90620
H         -0.88030       -0.61010       -0.03430
H          0.66510       -1.24180       -1.70080
H          1.60180        0.26670       -1.60400
H          2.18870       -2.03410        0.29940
H          2.73200       -0.26520        2.01240
