17
gdb 8928	3.68194	1.19812	1.06753	2.7404	64.75	-0.256	0.0113	0.2674	1119.2391	0.142537	-397.169528	-397.160373	-397.159429	-397.203361	32.962
N         -0.17640        1.42410        0.16640
C         -0.07610       -0.02050       -0.02950
C         -1.47850       -0.61820        0.15750
O         -2.01990       -0.23980        1.39880
C          0.57290       -0.46690       -1.38200
N         -0.06480       -0.01020       -2.61690
C          1.97740       -0.02770       -1.38620
N          3.06420        0.36150       -1.33390
H          0.73820        1.84780        0.28370
H         -0.62480        1.87090       -0.62900
H          0.55360       -0.40980        0.77880
H         -2.13070       -0.29900       -0.67670
H         -1.42930       -1.71290        0.13220
H         -1.75130        0.68340        1.51610
H          0.57440       -1.56490       -1.40310
H         -1.02340       -0.33760       -2.66230
H         -0.07520        1.00350       -2.66840
