16
gdb 4495	3.57403	1.73257	1.1841	1.678	69.55	-0.1875	0.0286	0.216	1001.5769	0.128804	-383.78057	-383.771921	-383.770977	-383.813824	30.426
C          0.08940        1.44780       -0.01910
C         -0.06610       -0.03040       -0.00910
C         -1.14910       -0.85200        0.06900
C         -0.63390       -2.19040        0.03010
O         -1.32830       -3.36470        0.08130
C          0.72100       -2.10120       -0.06860
C          1.80090       -3.11450       -0.14840
O          1.07050       -0.77020       -0.09240
H          0.70160        1.79390        0.82180
H          0.57370        1.79560       -0.93890
H         -0.89010        1.92590        0.05250
H         -2.18250       -0.54740        0.14480
H         -2.26650       -3.16460        0.13530
H          2.38190       -3.02470       -1.07440
H          2.50480       -3.03340        0.68900
H          1.35520       -4.11170       -0.12210
