13
gdb 3502	6.57234	2.17258	2.01119	1.223	54.31	-0.2434	-0.0399	0.2035	645.9239	0.101115	-344.380267	-344.374399	-344.373455	-344.410195	21.531
O         -0.67330        0.74550        0.52680
C          0.13680        0.98570       -0.33500
C          1.27590        1.95780       -0.21710
C          1.07860        3.49490       -0.49830
C          0.30060        3.64550        0.82720
C          1.55980        2.77820        1.06720
O          2.33430        3.73620        0.23250
H          0.08410        0.47190       -1.32250
H          2.17500        1.57900       -0.71110
H          0.94570        3.99150       -1.45960
H          0.35080        4.64400        1.26140
H         -0.67370        3.16970        0.92820
H          2.00960        2.44210        2.00040
