17
gdb 14840	2.94508	1.6192	1.15897	4.3246	68.12	-0.2778	0.0002	0.278	1045.16	0.141871	-363.856493	-363.848164	-363.84722	-363.890151	29.209
C         -0.00010        1.56580       -0.08880
C          0.02790        0.03720        0.01430
C         -1.37050       -0.56190        0.06720
C         -2.21660       -0.56540       -1.22690
O         -2.40000       -2.00100       -1.15980
C         -1.54580       -2.11160       -0.00980
C         -0.33510       -2.89740       -0.27900
N          0.62440       -3.51010       -0.47830
H          1.01390        1.97300       -0.13090
H         -0.52680        1.89670       -0.99070
H         -0.50530        2.01370        0.77390
H          0.57380       -0.38530       -0.83740
H          0.58280       -0.26420        0.91100
H         -1.92200       -0.16040        0.92160
H         -3.17410       -0.03610       -1.19430
H         -1.66970       -0.27230       -2.13180
H         -2.06800       -2.56550        0.84080
