16
gdb 3973	3.93365	1.21168	1.06375	3.033	64.58	-0.2384	-0.0054	0.233	1107.8761	0.128252	-417.059279	-417.049833	-417.048889	-417.095303	32.585
C          0.22330        1.50440       -0.36020
C         -0.09920        0.10250        0.07660
C         -0.24010       -0.18040        1.55130
C          1.12830       -0.22490        2.25510
N          1.93190       -1.23490        1.81500
O          1.44760        0.55480        3.12900
N         -0.24150       -0.90510       -0.69990
O         -0.07020       -0.56610       -2.05130
H          0.77660        2.02960        0.42270
H          0.79630        1.50580       -1.28800
H         -0.70300        2.06350       -0.54140
H         -0.81840        0.60460        2.04310
H         -0.74550       -1.14060        1.68560
H          1.69020       -1.75810        0.98960
H          2.87670       -1.27720        2.16010
H         -0.21350       -1.41060       -2.49110
