16
gdb 17758	3.00833	2.66611	1.85974	1.102	67.95	-0.2155	0.0734	0.2889	764.2162	0.12918	-346.490719	-346.483814	-346.482869	-346.521242	27.634
C          0.00300        1.48060        0.08330
C          0.03610       -0.00870       -0.00210
C          0.27850       -0.99360       -1.19160
C         -0.62440       -2.02490       -0.53350
C          0.86880       -2.02380       -0.23740
C          0.61220       -1.03010        0.95320
O          1.29460       -0.77110        2.11180
C         -0.88650       -1.05630        0.65430
H          0.95050        1.92120       -0.24900
H         -0.79900        1.90390       -0.53260
H         -0.16290        1.79850        1.11790
H          0.50020       -0.82480       -2.23810
H         -1.22970       -2.80320       -0.98000
H          1.61260       -2.78700       -0.42670
H          1.09220       -1.46580        2.74970
H         -1.73660       -0.89310        1.30420
