19
gdb 18535	5.63882	1.01658	0.96833	1.7511	70.84	-0.2315	0.0757	0.3072	1231.2989	0.166072	-365.004312	-364.99622	-364.995276	-365.037254	29.959
O         -0.03580        1.45950       -0.05190
C          0.01030        0.04510        0.05360
C         -1.40640       -0.48560       -0.13170
C         -1.48530       -2.00470       -0.02100
C         -1.31710       -2.71790        1.35380
N         -2.60500       -3.48430        1.18830
C         -3.65830       -2.45670        1.12610
C         -2.85110       -2.68940       -0.08730
H          0.85420        1.80060        0.07530
H          0.67330       -0.39150       -0.71190
H          0.40090       -0.26830        1.03610
H         -2.05350       -0.00930        0.61350
H         -1.77270       -0.16520       -1.11500
H         -0.80870       -2.45970       -0.75230
H         -0.47050       -3.40500        1.40550
H         -1.30820       -2.07500        2.24200
H         -4.65960       -2.87650        1.14340
H         -3.54220       -1.54350        1.70610
H         -3.27030       -3.15790       -0.97280
