12
gdb 21921	3.61406	1.92915	1.293	2.5445	52.98	-0.2485	-0.0446	0.2039	855.2525	0.082761	-451.758862	-451.751481	-451.750537	-451.791202	25.741
O          0.19490        1.22400       -0.51200
C         -0.02330        0.12960        0.35300
C         -1.35810       -0.50900        0.12350
C         -2.11530       -0.67150       -0.99720
O         -1.82810       -0.29000       -2.25810
N         -3.25830       -1.32370       -0.64300
N         -3.24940       -1.57100        0.60160
O         -2.04420       -1.06430        1.13250
H          0.11070        0.91650       -1.42170
H          0.77100       -0.62930        0.26310
H          0.01800        0.51600        1.37570
H         -2.59500       -0.47940       -2.81230
