13
gdb 4527	3.63367	1.8868	1.24995	1.1939	57.43	-0.1748	0.0419	0.2166	896.7147	0.096647	-431.942626	-431.935072	-431.934127	-431.973963	28.245
N          0.05770        1.31240       -0.12880
C         -0.03860       -0.05740       -0.05910
N         -1.12350       -0.77160       -0.06650
C         -0.65770       -2.08570       -0.07980
N         -1.55190       -3.15320       -0.15170
C          0.69390       -2.08690       -0.07260
O          1.63530       -3.04490        0.03640
O          1.11430       -0.74660       -0.05460
H          0.86230        1.69890        0.34380
H         -0.80690        1.77110        0.11930
H         -2.43720       -2.91250        0.27570
H         -1.17980       -3.99990        0.25900
H          2.03610       -3.21380       -0.82660
