14
gdb 21246	3.36486	1.91196	1.29645	3.3957	60.85	-0.2091	0.0089	0.218	905.9868	0.107063	-415.831788	-415.824067	-415.823123	-415.864386	27.386
C          0.16100        1.09750        0.40260
O         -0.45020        0.13090       -0.45030
C          0.41420       -0.50690       -1.29270
C          0.81680       -1.81420       -1.19450
N          0.58820       -2.77200       -0.23680
O          1.60010       -2.13030       -2.22820
N          1.74590       -0.99530       -3.06770
C          1.03250       -0.06070       -2.48840
H          0.93120        0.63900        1.03550
H          0.61790        1.90920       -0.17740
H         -0.63320        1.50810        1.02990
H         -0.23910       -2.58440        0.31280
H          0.61730       -3.72110       -0.58350
H          0.97580        0.91560       -2.95020
