13
gdb 19814	4.31467	2.1478	1.90729	4.4204	56.81	-0.2464	0.0174	0.2638	703.7946	0.096422	-398.557464	-398.551654	-398.550709	-398.587283	22.87
O         -0.03460        0.03340        0.17400
C          0.00010        1.22480        0.06600
N         -0.99910        2.19100       -0.00280
C         -0.09010        3.33100       -0.01110
C          0.45180        3.84620        1.36890
O          0.50780        2.73080        2.25480
C          1.57180        2.89380        1.31380
C          1.09720        2.32220       -0.05220
H         -1.93980        2.12190        0.36090
H         -0.25310        4.08300       -0.78240
H          0.36630        4.83440        1.80580
H          2.58050        2.94750        1.70360
H          1.81470        2.29090       -0.86810
