13
gdb 10241	2.29508	2.03024	1.27576	3.3424	65.77	-0.249	0.0124	0.2614	943.9797	0.092306	-361.418214	-361.409491	-361.408547	-361.451912	31.165
N          0.82030        0.14670        0.73800
C         -0.17670        0.22730       -0.17430
O         -0.26810        1.07780       -1.02900
C         -1.29190       -0.86670       -0.02390
C         -0.80460       -2.13600        0.51800
C         -0.37530       -3.16600        0.96400
C         -2.38840       -0.31770        0.77760
C         -3.27870        0.14610        1.43550
H          1.57180        0.81420        0.68420
H          0.89930       -0.64340        1.35570
H         -1.64590       -1.02110       -1.05030
H         -0.01380       -4.08800        1.34880
H         -4.07020        0.55540        2.01340
