13
gdb 18145	3.62096	1.98224	1.609	4.6535	57.49	-0.2601	-0.014	0.2461	785.974	0.095255	-398.54772	-398.540918	-398.539974	-398.578752	25.244
O          0.09770        1.36100       -0.01150
C         -0.02610       -0.01730       -0.00610
C         -0.45970       -0.78480        1.19010
O         -1.39430        0.01900        1.93900
C         -2.36030       -0.07120        0.85540
C         -2.92240        1.22340        0.45720
N         -3.40720        2.22800        0.15610
C         -1.35060       -0.76770       -0.05420
H         -0.25540        1.68950        0.82580
H          0.74130       -0.49710       -0.60740
H          0.06360       -1.56490        1.73000
H         -3.18110       -0.73220        1.15450
H         -1.59520       -1.53240       -0.77800
