14
gdb 20570	4.633	1.38477	1.35499	2.627	58.95	-0.2767	-0.0455	0.2312	936.1158	0.106312	-415.833411	-415.825933	-415.824989	-415.865798	26.772
C          0.00330        1.54360       -0.02830
C          0.00540        0.01320        0.05310
O          0.66070       -0.44840        1.22780
C         -1.38300       -0.55270       -0.03540
C         -2.00250       -1.36010       -0.93300
O         -3.25200       -1.58750       -0.53070
N         -3.40890       -0.87920        0.69790
N         -2.32200       -0.30020        0.94660
H          1.02490        1.91660        0.07860
H         -0.40230        1.88760       -0.98500
H         -0.61250        1.96710        0.77180
H          0.59230       -0.39280       -0.77770
H          0.11950       -0.18500        1.98150
H         -1.68930       -1.82390       -1.85390
