13
gdb 9577	4.65045	1.31817	1.26178	5.2174	66.7	-0.2684	0.0001	0.2685	962.3297	0.093176	-361.418638	-361.410675	-361.409731	-361.450769	29.093
O         -0.05340        1.38040       -0.08060
C          0.02210       -0.00910       -0.00790
C         -0.43850       -0.67360        1.27000
C         -1.33960       -0.70170        0.04570
C         -2.53430        0.09380        0.01580
N         -3.51360        0.70790       -0.01150
C          1.06360       -0.62960       -0.78680
C          1.95700       -1.12390       -1.42120
H          0.75930        1.74430        0.28920
H          0.02000       -1.60730        1.57160
H         -0.72890       -0.00120        2.06820
H         -1.41200       -1.64070       -0.49070
H          2.73890       -1.56020       -1.99310
