14
gdb 19600	4.40192	2.0536	1.90519	1.5234	55.06	-0.254	0.0611	0.3151	717.4453	0.108233	-419.59834	-419.592687	-419.591743	-419.627803	23.444
O          0.15190        1.38740       -0.10810
C          0.11750       -0.00720       -0.09980
C          0.15900       -0.64080        1.32350
O         -1.26130       -0.24040        1.45390
C         -1.31360       -0.61230        0.02100
C         -1.08000       -2.13400        0.10180
O          0.23710       -2.55530       -0.29070
C          0.01730       -2.15520        1.07240
H         -0.45650        1.67610        0.58600
H          0.79110       -0.37380       -0.86930
H          0.79510       -0.27680        2.12920
H         -2.18270       -0.21930       -0.50470
H         -1.87320       -2.86800        0.02090
H          0.17830       -2.90770        1.83560
