15
gdb 21164	3.34941	1.83514	1.25366	3.7021	64.42	-0.2082	0.0144	0.2226	944.1733	0.119915	-395.960078	-395.95233	-395.951386	-395.992439	28.228
C         -0.46260        1.19050       -0.05600
N          0.37530        0.01610        0.19280
C          0.86370       -0.64310       -0.96130
C          0.68690       -1.97940       -1.22690
N          0.11990       -2.96910       -0.47050
O          1.23780       -2.31010       -2.39410
N          1.81790       -1.14630       -2.97440
C          1.58580       -0.19640       -2.10410
H          0.04090        1.99640       -0.61350
H         -1.34410        0.88910       -0.62970
H         -0.80110        1.59920        0.90100
H          1.12620        0.25400        0.83190
H         -0.47130       -2.59770        0.26110
H         -0.29760       -3.72690       -0.99140
H          1.94050        0.80120       -2.32840
