22
gdb 17130	5.30345	1.06298	1.00284	0.0942	82.76	-0.2629	0.0883	0.3511	1275.8063	0.200707	-313.051919	-313.043422	-313.042478	-313.085119	32.515
C         -0.23100        1.50370       -0.05130
C         -0.01430       -0.00690       -0.04670
C          1.22620       -0.48110       -0.86110
C          2.02960       -0.60280        0.46800
C          0.67640       -0.55350        1.23830
C          2.93350       -1.78790        0.66380
C          4.38840       -1.72070        0.26690
C          4.00630       -1.77100        1.72570
H          0.68810        2.04210        0.20800
H         -0.55120        1.85410       -1.03890
H         -0.99960        1.79510        0.67340
H         -0.95170       -0.50670       -0.30940
H          1.06630       -1.46070       -1.32270
H          1.61380        0.20010       -1.62460
H          2.60090        0.31500        0.64930
H          0.62910        0.07040        2.13590
H          0.32760       -1.55800        1.49830
H          2.44560       -2.74760        0.50290
H          4.84580       -2.59810       -0.17690
H          4.76100       -0.78060       -0.12710
H          4.12230       -0.86480        2.31150
H          4.20260       -2.68290        2.27900
