13
gdb 7728	3.62999	1.96988	1.32429	3.0627	55.59	-0.2757	-0.0245	0.2512	849.9871	0.097672	-435.823855	-435.817333	-435.816389	-435.854875	23.948
O         -0.01120       -0.07800       -0.00220
C         -0.05930        1.12670        0.03580
C         -1.32540        1.95900       -0.00530
C         -1.10200        3.28560        0.70470
O          0.04080        3.97600        0.17140
C          1.19700        3.29670        0.03130
O          2.24200        3.85300       -0.15500
N          1.09270        1.90380        0.10670
H         -1.58680        2.13040       -1.05640
H         -2.13540        1.38700        0.45140
H         -1.93960        3.96990        0.56500
H         -0.95330        3.13390        1.78090
H          1.97430        1.41160        0.04400
