15
gdb 12058	3.61533	1.89284	1.57969	2.9504	61.15	-0.2507	-0.0314	0.2193	823.7364	0.118164	-399.755561	-399.748412	-399.747468	-399.786933	27.141
O          0.19470        1.51050        0.39850
C          0.11470        0.14850        0.09660
C          0.23970       -0.89500        1.27620
C         -1.20800       -1.30310        1.02200
N         -2.01780       -0.05820        1.12550
C         -1.32460       -0.39160       -0.14120
C          1.04030       -0.11710       -1.07270
O          1.49150       -1.19710       -1.35460
H         -0.55820        1.68710        0.98130
H          0.95270       -1.67840        1.01330
H          0.46450       -0.46610        2.25490
H         -1.66650       -2.27060        1.17890
H         -2.99940       -0.30620        1.01120
H         -1.86440       -0.48080       -1.07580
H          1.25380        0.79340       -1.67320
