15
gdb 2450	5.38713	2.4384	2.01258	2.8244	59.9	-0.2394	-0.016	0.2233	665.3529	0.126401	-308.540795	-308.53491	-308.533966	-308.570503	22.989
O          0.00940        0.45800        0.99510
C         -0.01390        1.38450        0.22880
C         -1.28340        2.05450       -0.32530
C         -0.81890        3.36360       -0.92920
C         -0.05810        4.30180       -0.02580
C          0.70400        3.38500       -0.94960
C          1.22110        2.08950       -0.35890
H         -1.70910        1.38910       -1.08800
H         -2.03130        2.14890        0.46810
H         -1.38280        3.78720       -1.75170
H         -0.07620        5.35820       -0.26950
H         -0.04090        4.09580        1.04170
H          1.23360        3.82380       -1.78690
H          1.98710        2.20510        0.41410
H          1.64450        1.43600       -1.13300
