16
gdb 16123	4.32379	1.6852	1.46681	5.0116	69.02	-0.2584	0.0193	0.2776	878.7751	0.132983	-342.784888	-342.778133	-342.777189	-342.815669	26.147
N          0.05990       -1.12480       -0.26200
C          0.04370        0.02440       -0.13620
C         -0.02740        1.45530        0.02980
C          0.24330        2.36200       -1.12880
N          1.23890        2.22630       -0.06800
C          1.16550        3.27480        0.97040
C         -0.30600        3.40350        1.42680
C         -0.89370        2.00120        1.16570
H          0.53620        1.93010       -2.08020
H         -0.34790        3.27180       -1.20130
H          1.80320        2.94670        1.79720
H          1.57990        4.20830        0.57910
H         -0.38750        3.69720        2.47550
H         -0.83610        4.16080        0.84300
H         -1.95570        2.02140        0.90850
H         -0.77790        1.35340        2.03990
