18
gdb 19735	3.86061	2.40549	2.20348	1.6018	69.62	-0.2351	0.0941	0.3292	719.8219	0.158456	-347.796047	-347.790582	-347.789637	-347.825227	23.751
C         -0.03240        1.56850        0.04120
C          1.51470        1.42370        0.01650
C          1.75980        0.80720        1.41040
C          0.84590       -0.43940        1.22880
O          1.63810       -1.52250        0.73540
C          2.12950       -1.09240       -0.54480
C          1.28820        0.13910       -0.87000
C          0.00660        0.02380        0.00820
H         -0.48570        2.06910        0.90250
H         -0.43820        1.98320       -0.88500
H          2.16540        2.23710       -0.30560
H          2.78990        0.50010        1.60690
H          1.43810        1.47790        2.21290
H          0.31330       -0.79020        2.11250
H          3.20550       -0.87350       -0.49190
H          1.98380       -1.90360       -1.26810
H          1.13140        0.35090       -1.92770
H         -0.84430       -0.59740       -0.26980
