17
gdb 2238	4.45208	2.72222	2.19008	1.2516	63.42	-0.2241	0.0887	0.3127	678.7449	0.149442	-309.715058	-309.708558	-309.707614	-309.744945	25.465
C         -0.03980        1.57370        0.12360
C          0.13710        0.08460        0.04450
C         -0.81880       -0.88680        0.69610
C          0.63340       -0.80790        1.14890
C          1.61390       -1.76720        0.49590
C          1.29400       -1.60990       -1.00860
O          0.72550       -0.31330       -1.17550
H          0.92120        2.08350       -0.00000
H         -0.71390        1.92640       -0.66410
H         -0.46550        1.86000        1.08910
H         -1.56590       -0.47380        1.36580
H         -1.15370       -1.75800        0.14250
H          0.85590       -0.42030        2.13660
H          2.63860       -1.44810        0.71500
H          1.51020       -2.80650        0.82320
H          2.17600       -1.67660       -1.65190
H          0.58280       -2.38110       -1.33650
