18
gdb 11779	4.2721	1.66322	1.53694	2.8361	72.05	-0.2447	-0.0207	0.224	886.1023	0.155638	-347.808066	-347.801195	-347.800251	-347.839246	26.895
O         -0.06060       -0.04130       -0.01670
C          0.03590        1.15120        0.14250
C          1.30600        1.92540        0.05600
C          2.66060        1.29100       -0.35600
C          3.02190        2.76890       -0.68790
C          1.53780        2.93560       -1.12420
C          3.01850        3.42350        0.70700
C          1.69990        2.79870        1.27440
H         -0.86630        1.77190        0.36110
H          3.23970        0.77720        0.41600
H          2.56580        0.65970       -1.24090
H          3.84030        3.02220       -1.36190
H          1.32720        2.48720       -2.09740
H          1.07950        3.92610       -1.04960
H          3.89580        3.14550        1.29750
H          2.97820        4.51530        0.65720
H          0.93990        3.54930        1.51070
H          1.86810        2.19430        2.16980
