15
gdb 16096	4.50861	1.75952	1.51448	1.6593	73.11	-0.226	0.0031	0.2291	852.3842	0.118944	-325.467053	-325.460294	-325.45935	-325.497632	26.813
C          0.06730       -1.18880        0.03330
C          0.04320        0.01310        0.01370
C         -0.03820        1.44640       -0.01280
C          0.36680        2.24170       -1.22110
N          1.21920        2.26650       -0.03760
C          0.98340        3.41400        0.86780
C         -0.43720        3.27340        1.36710
C         -0.99350        2.16040        0.89460
H          0.10540       -2.24970        0.05370
H          0.80270        1.72900       -2.07390
H         -0.24400        3.11150       -1.45620
H          1.71050        3.37700        1.68950
H          1.15770        4.35490        0.33020
H         -0.91760        4.00330        2.00780
H         -1.98730        1.78550        1.10030
