15
gdb 10104	2.17257	1.67019	0.99262	4.3462	63.61	-0.2994	-0.0205	0.2789	1131.8078	0.116592	-399.832384	-399.823545	-399.822601	-399.866983	29.591
C         -0.01130        1.53610        0.02280
C          0.00460        0.00800       -0.03470
C         -1.40720       -0.59110       -0.02750
O         -2.08910       -0.16130       -1.21290
C         -3.42800        0.04760       -1.13170
O         -4.07200        0.39470       -2.07000
C         -1.37280       -2.06320        0.01900
N         -1.33810       -3.21630        0.07270
H          1.01000        1.92540        0.01380
H         -0.54210        1.95630       -0.83490
H         -0.49720        1.89580        0.93650
H          0.51560       -0.34220       -0.93710
H          0.54520       -0.40870        0.82170
H         -1.95350       -0.23870        0.85850
H         -3.83080       -0.12770       -0.11600
