15
gdb 2073	4.65567	2.54744	1.76179	4.4766	57.07	-0.2574	0.0139	0.2713	707.0969	0.12717	-345.703157	-345.696903	-345.695959	-345.73348	23.189
O          0.00760        0.00520        0.41450
C         -0.03070        1.12920       -0.00630
C         -1.33320        1.91250       -0.12970
C         -1.29330        3.11660       -1.07470
C         -0.00750        3.90140       -0.81810
C          1.18560        2.98700       -1.04920
O          1.13450        1.75700       -0.30360
H         -2.11150        1.19290       -0.39280
H         -1.56210        2.25130        0.88980
H         -1.31180        2.77790       -2.11840
H         -2.18070        3.74030       -0.92990
H          0.07940        4.76620       -1.48430
H          0.00540        4.27990        0.21160
H          1.26200        2.72880       -2.11400
H          2.12500        3.46020       -0.75240
