15
gdb 11102	6.41955	1.13827	1.06415	1.4336	62.42	-0.2411	-0.0382	0.2029	1066.2682	0.117547	-399.788156	-399.780334	-399.779389	-399.821419	26.975
O         -0.17500        0.16470       -0.32540
C         -0.09120        1.35220       -0.13170
C          1.20600        2.06000        0.17350
C          1.35740        2.41370        1.68770
C          2.41800        1.29020        1.72380
N          2.38480        1.17470        0.23850
C          3.79910        1.67170        2.21520
O          4.02850        2.59380        2.95390
H         -0.98870        2.00980       -0.15800
H          1.30930        2.90720       -0.51850
H          1.77430        3.40130        1.88390
H          0.47150        2.26550        2.30670
H          2.09520        0.38460        2.25750
H          2.15630        0.24280       -0.09880
H          4.61120        1.02720        1.80920
