15
gdb 12727	3.18275	2.21486	1.61722	2.1334	61.61	-0.2302	-0.0314	0.1988	802.6387	0.118503	-399.768238	-399.761011	-399.760067	-399.799771	27.214
O          0.43820        1.29380       -0.32310
C          0.11010       -0.02530       -0.06880
C          0.32020       -0.98190       -1.27020
N         -1.00050       -1.64540       -1.06690
C         -1.32430       -0.74660        0.06530
C         -0.88490       -1.37620        1.41500
C          0.41170       -0.55240        1.33070
O          1.20230       -0.15810        2.14490
H          0.75690        1.67990        0.50340
H          0.38250       -0.38030       -2.18220
H          1.17810       -1.66050       -1.23140
H         -1.61450       -1.49840       -1.85980
H         -2.27840       -0.22100        0.04170
H         -1.48030       -1.09620        2.28900
H         -0.77090       -2.46170        1.38200
