14
gdb 2354	5.9322	1.79152	1.71655	4.5659	53.78	-0.2458	0.0172	0.263	753.0696	0.113726	-361.720579	-361.713254	-361.712309	-361.753364	24.832
N         -0.00960        1.31450        0.39180
C          0.01260        0.14070       -0.30170
O          0.98390       -0.22810       -0.93500
C         -1.26030       -0.68350       -0.23630
C         -1.80860       -1.17930       -1.59870
O         -1.75770       -2.55480       -1.17910
C         -1.06660       -2.19680        0.03220
H          0.80970        1.89980        0.36900
H         -0.81400        1.62480        0.90660
H         -2.02570       -0.22750        0.39530
H         -2.82530       -0.86200       -1.85570
H         -1.12940       -0.97940       -2.43550
H         -0.01510       -2.50470        0.01170
H         -1.56040       -2.59790        0.92410
