13
gdb 11628	3.49096	1.90349	1.51835	4.9793	64.45	-0.2688	-0.0156	0.2532	823.4271	0.096407	-361.442045	-361.435583	-361.434639	-361.472771	24.201
O         -0.02560       -0.01200        0.00450
C         -0.03740        1.17230        0.01140
C         -0.99200        2.37060        0.02740
C         -0.01180        2.97140        1.09390
C          0.95810        2.38190        0.00830
C         -0.03280        2.98330       -1.05150
C          2.39030        2.40850       -0.00560
N          3.54680        2.41380       -0.01690
H         -2.07750        2.38630        0.03810
H         -0.00960        4.06200        1.13940
H          0.01200        2.51540        2.08390
H         -0.02850        2.53820       -2.04670
H         -0.03140        4.07430       -1.08500
