22
gdb 6084	3.88087	0.82815	0.79671	0.0117	88.31	-0.2397	0.0619	0.3016	1610.3883	0.197718	-313.063395	-313.05277	-313.051826	-313.100006	37.747
C          0.07120        1.52030        0.13240
C         -0.05320       -0.00890       -0.01790
C         -1.53010       -0.45110       -0.02500
C          0.64480       -0.48080       -1.21540
C          1.21120       -0.85640       -2.21120
C          1.88390       -1.32860       -3.42310
C          2.10010       -2.85440       -3.38100
C          1.10900       -0.90900       -4.68820
H          1.11960        1.82770        0.16740
H         -0.40250        2.02950       -0.71280
H         -0.41910        1.85390        1.05290
H          0.42770       -0.46940        0.85700
H         -2.06030       -0.00730       -0.87350
H         -1.61470       -1.53810       -0.10500
H         -2.02840       -0.13160        0.89620
H          2.87430       -0.85330       -3.46670
H          2.64060       -3.18740       -4.27310
H          2.67570       -3.14550       -2.49840
H          1.13960       -3.37800       -3.34610
H          0.98030        0.17590       -4.72870
H          1.64580       -1.22810       -5.58760
H          0.11550       -1.36810       -4.70050
