16
gdb 14717	11.64695	0.59511	0.57227	1.3295	83.98	-0.243	-0.0124	0.2306	1861.7694	0.127638	-346.540212	-346.530894	-346.52995	-346.574847	32.
C          0.05140        1.37830        0.00880
O          0.01090       -0.02980        0.00180
C         -1.29980       -0.54180        0.01150
C         -1.19010       -2.07250        0.00260
C         -2.48810       -2.72510        0.01120
C         -3.57740       -3.25230        0.01890
C         -4.80190       -3.84590        0.02740
C         -5.88900       -4.37180        0.03450
H          1.10300        1.67390        0.00060
H         -0.44590        1.80530       -0.87620
H         -0.42930        1.79590        0.90740
H         -1.84980       -0.20820        0.90610
H         -1.86640       -0.19910       -0.86930
H         -0.61830       -2.37550       -0.88320
H         -0.60200       -2.38450        0.87450
H         -6.84410       -4.83500        0.04100
