20
gdb 13504	3.16458	1.54341	1.20974	2.2083	71.19	-0.2484	0.0688	0.3172	1063.6943	0.175715	-386.12433	-386.115247	-386.114303	-386.157737	33.888
C          0.05200        1.48760       -0.13160
C          0.04850       -0.02390        0.10300
O          0.66040       -0.35660        1.34920
C         -1.35180       -0.61890        0.01400
C         -2.18150       -0.50050       -1.29750
C         -2.70670       -1.93870       -1.03970
C         -1.50690       -2.16330       -0.07620
O         -0.37410       -2.70320       -0.73360
H          1.06910        1.87950       -0.04450
H         -0.33390        1.74000       -1.12440
H         -0.57590        1.99990        0.60930
H          0.67780       -0.51240       -0.64700
H          0.17100        0.10020        2.04260
H         -1.94980       -0.25280        0.85960
H         -2.91490        0.30600       -1.36320
H         -1.53330       -0.46160       -2.17700
H         -3.66290       -1.94080       -0.50790
H         -2.77360       -2.61890       -1.89320
H         -1.70770       -2.69740        0.86130
H         -0.57060       -3.61770       -0.95900
