17
gdb 2411	4.97086	2.2475	1.89792	1.943	64.56	-0.2343	0.0892	0.3235	745.8129	0.147868	-309.651827	-309.645002	-309.644058	-309.682118	26.299
C         -0.16870        1.56460        0.80000
C         -0.12690        0.07780        0.49730
C          1.03630       -0.48610       -0.36860
O          1.96960       -0.21230        0.75030
C          0.77750       -0.84590        1.36310
C          0.82220       -1.90850        0.22640
C         -0.33880       -2.82030       -0.13650
H          0.83140        1.93820        1.02700
H         -0.56670        2.12390       -0.05390
H         -0.82200        1.76860        1.65560
H         -1.11970       -0.31680        0.26700
H          1.35920       -0.19420       -1.37010
H          0.78890       -0.98710        2.44590
H          1.76850       -2.45530        0.25420
H         -1.30280       -2.30720       -0.17530
H         -0.16770       -3.28000       -1.11590
H         -0.42450       -3.63310        0.59290
