24
gdb 7396	3.56615	1.04641	0.85582	1.003	82.78	-0.25	0.0841	0.334	1442.1147	0.221019	-351.405563	-351.394802	-351.393858	-351.441485	38.52
C         -0.08950        1.39740        0.01470
O         -0.06160       -0.00750        0.00010
C          0.64460       -0.53310       -1.10640
C          0.60770       -2.06440       -1.04250
C         -0.85360       -2.54160       -1.03970
C          1.44530       -2.70580       -2.17880
C          2.92110       -2.27250       -2.15000
C          1.36900       -4.24100       -2.14880
H          0.92400        1.82760        0.06530
H         -0.58790        1.80770       -0.87860
H         -0.64730        1.70660        0.90230
H          0.18700       -0.18420       -2.05080
H          1.67840       -0.15750       -1.08900
H          1.06540       -2.35110       -0.08430
H         -1.31440       -2.39100       -2.02410
H         -0.93760       -3.60150       -0.78880
H         -1.43020       -1.97300       -0.30780
H          1.01340       -2.37110       -3.13450
H          3.49050       -2.80250       -2.92060
H          3.05310       -1.20250       -2.32920
H          3.37890       -2.50880       -1.18170
H          0.35160       -4.61030       -2.29670
H          1.99360       -4.67100       -2.93850
H          1.73260       -4.63240       -1.19070
