16
gdb 5783	5.87243	1.49256	1.25614	2.1751	71.75	-0.183	0.05	0.2331	951.7924	0.13269	-342.781207	-342.774261	-342.773317	-342.812699	26.648
C         -0.19980        1.26540       -0.35410
C          1.22130        1.05280        0.03970
N          0.26630       -0.04570        0.09140
C         -0.15210       -0.51830        1.35230
C          0.64490       -0.77870        2.44820
N         -0.16330       -1.31340        3.42750
C         -1.45310       -1.38760        2.97810
C         -1.48280       -0.90510        1.69040
H         -0.82350        1.83690        0.32980
H         -0.47790        1.33290       -1.40200
H          1.99790        0.96840       -0.71510
H          1.53990        1.48750        0.98510
H          1.70440       -0.65340        2.59660
H          0.14920       -1.59380        4.33940
H         -2.24060       -1.77300        3.60560
H         -2.34900       -0.83620        1.05090
