16
gdb 18767	3.88874	2.30996	1.75113	1.7335	63.81	-0.2415	0.057	0.2985	761.6153	0.131649	-383.670806	-383.664626	-383.663682	-383.700971	24.47
C          0.00160        1.48730        0.00390
O          1.46130        1.53410       -0.01830
C          1.51190        0.13590        0.14080
C          2.56800       -0.85880       -0.29060
O          2.19490       -1.70680        0.83180
C          1.43580       -0.65130        1.48120
C         -0.09660       -0.81500        1.32890
C         -0.01150       -0.06430       -0.03150
H         -0.40300        1.94340        0.91540
H         -0.41670        1.98960       -0.87350
H          2.44470       -1.36150       -1.25630
H          3.59890       -0.49080       -0.19350
H          1.87240       -0.34950        2.43710
H         -0.41150       -1.85840        1.25770
H         -0.69210       -0.31210        2.09720
H         -0.45920       -0.51430       -0.91740
