9
gdb 8960	5.37678	0.93541	0.79679	3.8153	72.77	-0.3019	-0.1262	0.1756	1264.7963	0.046737	-359.010919	-359.003363	-359.002419	-359.043608	25.301
O          0.00310       -0.08230        0.00340
C         -0.00280        1.13030        0.00680
C          1.19090        1.94100        0.00050
C          2.18430        2.62020       -0.00470
C         -1.24420        1.88660        0.01730
C         -2.29270        2.48970        0.02600
C         -3.47210        3.17560        0.03590
N         -4.47360        3.76390        0.04430
H          3.06740        3.21320       -0.00930
