18
gdb 13437	3.33712	1.34191	1.19009	3.8406	69.3	-0.271	0.0034	0.2744	1083.281	0.151612	-384.951074	-384.941978	-384.941034	-384.985395	31.609
C          0.25340        1.52620        0.27520
C          0.17330        0.03390        0.03560
C          0.66390       -0.61750       -1.24910
C          1.27230        0.17060       -2.39010
C          1.40990       -0.83750        0.03620
O          2.68350       -0.22240        0.12440
C          3.16120       -0.00740        1.36820
O          4.22780        0.49000        1.56930
H          1.18420        1.95630       -0.09900
H         -0.57690        2.04260       -0.21750
H          0.19270        1.75180        1.34560
H         -0.70100       -0.43490        0.48080
H          0.08110       -1.47550       -1.57440
H          1.95430        0.94580       -2.03820
H          1.84440       -0.49200       -3.04740
H          0.49070        0.64600       -2.99180
H          1.38100       -1.81590        0.50770
H          2.46490       -0.34590        2.15900
