17
gdb 2239	4.59453	2.61551	2.14475	1.6121	63.62	-0.2473	0.0928	0.3401	682.8931	0.14979	-309.716094	-309.709648	-309.708704	-309.745933	25.142
C         -0.06200        1.53270        0.04920
C          0.05280        0.02950        0.01110
C         -0.81730       -0.85110        0.87480
C          0.67250       -0.80110        1.11450
C          1.48450       -1.87650        0.41820
O          0.97170       -1.93810       -0.91080
C          0.53050       -0.63440       -1.27360
H          0.88000        2.01280       -0.24150
H         -0.84090        1.89170       -0.63390
H         -0.32000        1.88400        1.05300
H         -1.45390       -0.35550        1.60010
H         -1.23630       -1.75550        0.44380
H          1.06320       -0.34600        2.01750
H          2.55430       -1.60870        0.42220
H          1.37960       -2.87770        0.85010
H         -0.24870       -0.75550       -2.03460
H          1.35160       -0.04150       -1.71300
