16
gdb 5611	3.40788	2.03593	1.29534	2.4227	67.33	-0.1974	0.048	0.2454	927.8295	0.13145	-379.953566	-379.945471	-379.944526	-379.986762	28.072
C          0.00610        1.34590       -0.03010
O          0.03660       -0.08090        0.01350
C          0.65560       -0.59490        1.08650
N          1.21350        0.05570        2.07450
C          1.69840       -0.93950        2.90740
C          1.42260       -2.17420        2.40080
N          0.74060       -1.94950        1.20890
C          0.21920       -2.94280        0.29290
H          1.02070        1.75460       -0.04380
H         -0.52220        1.60390       -0.94870
H         -0.51970        1.74850        0.84050
H          2.21810       -0.69580        3.82100
H          1.63080       -3.17310        2.74620
H         -0.55730       -3.54890        0.77110
H         -0.21380       -2.42900       -0.56530
H          1.01780       -3.60490       -0.05610
