16
gdb 3189	5.12879	2.02727	1.87616	1.5645	60.68	-0.2345	0.0602	0.2947	741.0097	0.13684	-325.726991	-325.719978	-325.719034	-325.757821	26.657
O          0.12620        1.23740        0.62690
C          0.11220       -0.10430        0.20070
C          1.08820       -0.50690       -0.87540
C          1.32420       -0.91290        0.56610
C         -1.24110       -0.75540        0.26210
C         -2.18470       -0.41860        1.35300
N         -2.45710        0.01720       -0.03370
H          0.02300        1.79730       -0.14920
H          0.78600       -1.26580       -1.58920
H          1.72820        0.26940       -1.28180
H          2.10310       -0.39140        1.10940
H          1.18690       -1.95260        0.84230
H         -1.25740       -1.76520       -0.14370
H         -2.86480       -1.17210        1.73940
H         -1.86700        0.33410        2.06800
H         -2.20450        1.00140       -0.10240
