19
gdb 1975	5.53078	1.58312	1.45144	1.5092	67.98	-0.2395	0.0916	0.3312	935.7818	0.17085	-310.917273	-310.909253	-310.908309	-310.94974	29.154
C         -0.31310        1.42400       -0.13030
C          0.00620       -0.06890       -0.01080
C          0.88940       -0.56460       -1.14190
C          1.07300       -2.08400       -1.33780
C          0.56560       -1.81940       -2.77220
C         -0.63920       -2.58490       -3.27970
O          0.25270       -0.44400       -2.44000
H          0.59860        2.02950       -0.07780
H         -0.79890        1.63210       -1.08780
H         -0.98010        1.75320        0.67190
H          0.51430       -0.27800        0.94040
H         -0.92290       -0.65230       -0.01150
H          1.84360       -0.01490       -1.13800
H          2.08540       -2.47760       -1.23650
H          0.38710       -2.68720       -0.73650
H          1.37300       -1.85280       -3.51880
H         -1.44250       -2.58280       -2.53640
H         -1.02170       -2.13010       -4.19910
H         -0.36810       -3.62360       -3.49980
