18
gdb 10404	2.55152	1.94248	1.38597	4.7436	71.75	-0.2459	0.0219	0.2678	968.239	0.154198	-343.980123	-343.971771	-343.970826	-344.012817	30.694
C          0.02020        1.45590        0.22170
C         -0.12230       -0.06000        0.06320
C         -1.57410       -0.53960       -0.13340
C         -1.73710       -2.08790        0.00770
C         -2.29980       -1.80040        1.42050
N         -2.47530       -0.37990        1.03680
C         -2.13210        0.04060       -1.36590
N         -2.55080        0.48570       -2.34720
H          1.06880        1.72890        0.36860
H         -0.34680        1.98200       -0.66440
H         -0.53810        1.82880        1.08760
H          0.47020       -0.40150       -0.79410
H          0.27670       -0.57350        0.94650
H         -2.47700       -2.50060       -0.67770
H         -0.81180       -2.66070       -0.06060
H         -3.23340       -2.30150        1.69190
H         -1.56520       -1.97550        2.21690
H         -2.17970        0.31530        1.71380
