16
gdb 11943	3.28386	1.80108	1.45412	2.9483	67.27	-0.2558	-0.0381	0.2177	903.1545	0.128384	-383.722902	-383.715142	-383.714197	-383.754882	28.602
C          0.06840        1.52360        0.04250
C         -0.06700        0.03770        0.13420
C         -1.33920       -0.81380       -0.04130
C         -0.73860       -1.86960        0.94840
C          0.50170       -0.98640        1.07950
O          1.03510       -0.77360       -0.24180
C          1.39890       -0.78290        2.22730
O          1.21230       -1.27050        3.31690
H          1.06240        1.84700        0.35960
H         -0.08110        1.84980       -0.99330
H         -0.68300        2.02150        0.66250
H         -2.23570       -0.32930        0.35170
H         -1.52140       -1.14480       -1.06630
H         -1.29400       -1.94450        1.88420
H         -0.54890       -2.86800        0.55020
H          2.26640       -0.12270        2.01070
