21
gdb 1567	6.26736	1.16008	1.04503	0.9803	72.02	-0.2504	0.0863	0.3367	1196.148	0.192734	-312.119596	-312.110095	-312.109151	-312.153779	33.142
C         -0.03480        1.53810       -0.06990
C          0.02190        0.01030        0.02780
C          0.72100       -0.52210        1.29140
C         -0.00820       -0.14030        2.58640
C          0.88640       -2.03920        1.19170
O          1.65490       -2.49900        2.28370
C          1.82540       -3.89410        2.28750
H          0.96970        1.97370       -0.02380
H         -0.48960        1.85210       -1.01460
H         -0.62440        1.97760        0.74010
H         -0.99830       -0.39600       -0.01650
H          0.54290       -0.38140       -0.85570
H          1.73450       -0.09760        1.32750
H         -1.04940       -0.48620        2.56250
H          0.48080       -0.60260        3.44660
H         -0.01990        0.94200        2.74160
H         -0.10430       -2.52990        1.18930
H          1.38100       -2.30740        0.24190
H          0.86210       -4.42530        2.35410
H          2.34530       -4.24640        1.38180
H          2.42970       -4.14980        3.16160
