21
gdb 5801	3.34071	1.30239	1.19174	3.3959	75.	-0.2433	0.0309	0.2743	1136.3092	0.186012	-366.314543	-366.304315	-366.303371	-366.350085	37.496
C         -0.14200        1.57420        0.14200
C         -0.00590        0.04260        0.04670
C          0.68300       -0.50700        1.30980
C         -1.41100       -0.57890       -0.07140
C          0.78430       -0.35830       -1.22060
C          2.24870        0.08000       -1.30590
N          2.94200       -0.52340       -2.31930
O          2.78370        0.88410       -0.56490
H          0.83760        2.04780        0.21520
H         -0.65690        1.97710       -0.73840
H         -0.73260        1.84910        1.02290
H          0.09130       -0.26950        2.20050
H          0.78220       -1.59810        1.26170
H          1.67800       -0.07530        1.43170
H         -1.93320       -0.22150       -0.96640
H         -1.36320       -1.67270       -0.12490
H         -2.02250       -0.31470        0.79790
H          0.75370       -1.45000       -1.33750
H          0.27600        0.04950       -2.10610
H          2.49630       -1.12070       -2.99320
H          3.88350       -0.21370       -2.49640
