22
gdb 13373	5.32924	0.97491	0.89143	0.224	85.35	-0.2232	0.0356	0.2588	1397.1073	0.201198	-313.098183	-313.089323	-313.088379	-313.132213	32.619
C          0.07710        1.53300       -0.11030
C          0.00980        0.00620       -0.19340
C         -1.37300       -0.55070        0.19840
C         -1.47100       -2.04620        0.12310
C         -1.64890       -2.89000        1.14260
C         -1.75650       -4.33020        0.70510
C         -1.28500       -4.27870       -0.77140
C         -1.43520       -2.79730       -1.19670
H          1.06840        1.90470       -0.38820
H         -0.65360        1.99900       -0.78100
H         -0.13770        1.88450        0.90520
H          0.26060       -0.31570       -1.21140
H          0.76860       -0.43700        0.46310
H         -1.61590       -0.21900        1.21540
H         -2.12820       -0.10000       -0.46320
H         -1.75530       -2.58490        2.17910
H         -1.15070       -5.01220        1.31330
H         -2.79360       -4.68660        0.79150
H         -0.22970       -4.56500       -0.82400
H         -1.83660       -4.96510       -1.41900
H         -2.36880       -2.62150       -1.75200
H         -0.62530       -2.47050       -1.85860
