13
gdb 21697	3.54498	1.91772	1.31543	3.627	55.94	-0.245	-0.0325	0.2125	865.3387	0.096463	-431.873263	-431.866169	-431.865225	-431.904649	26.181
N          0.14640        1.34340       -0.10750
C          0.10120       -0.02900       -0.06770
N         -0.99000       -0.75040       -0.04770
O         -0.55220       -2.06170        0.05670
N          0.80550       -2.13070        0.07620
C          1.23640       -0.90360        0.01460
C          2.67820       -0.50590        0.00760
O          2.94230        0.44810       -1.02120
H          0.97000        1.69970       -0.57390
H         -0.71390        1.78810       -0.39320
H          2.93420        0.00270        0.94290
H          3.31160       -1.39670       -0.07560
H          2.83850        0.00190       -1.86890
