16
gdb 16239	3.00271	2.30851	1.48717	2.2033	66.56	-0.2408	0.0084	0.2492	846.1698	0.130481	-383.723411	-383.71618	-383.715236	-383.754959	27.617
O          0.18920        1.17290       -0.52650
C          0.02520       -0.10980        0.05190
C          0.44290       -0.20740        1.54600
C         -0.66540       -1.01990        2.17340
C         -1.70200       -1.17960        1.34970
C         -1.45160       -0.52110        0.04400
C         -2.47220        0.17340       -0.75430
O         -1.97450       -1.10610       -1.15620
H          1.12290        1.29840       -0.71930
H          0.56780       -0.86590       -0.53330
H          1.43320       -0.65620        1.68510
H          0.48590        0.80410        1.97060
H         -0.61090       -1.39420        3.18950
H         -2.62740       -1.69970        1.56490
H         -3.50660        0.18730       -0.41110
H         -2.16410        1.01210       -1.37370
