18
gdb 8705	2.58822	1.71525	1.36481	2.7024	64.6	-0.2393	-0.0259	0.2134	990.5469	0.149332	-422.065881	-422.05587	-422.054926	-422.100795	34.473
C         -0.12940        1.24770        0.22540
O         -0.02010       -0.15040        0.01500
C          0.69370       -0.56580       -1.15470
C          2.07330        0.06380       -1.30780
C          0.77060       -2.08790       -1.00370
O          1.29110       -2.60730       -2.21580
C         -0.22420       -0.24550       -2.34750
O         -0.00060        0.57840       -3.19380
H          0.83770        1.70510        0.46860
H         -0.55300        1.77050       -0.64230
H         -0.80210        1.37520        1.07670
H          2.62110       -0.00240       -0.36300
H          2.62850       -0.48060       -2.07470
H          2.00720        1.10740       -1.62020
H          1.40450       -2.32830       -0.13830
H         -0.24160       -2.46490       -0.79610
H          1.29340       -3.56680       -2.16220
H         -1.18450       -0.80940       -2.31950
