17
gdb 2583	2.9447	2.67343	1.68194	0.7085	70.34	-0.24	0.0559	0.2959	807.1004	0.146707	-272.54406	-272.536182	-272.535238	-272.575648	29.53
C          0.18100        1.47470        0.25500
C         -0.14560        0.03040       -0.13540
C          0.67250       -0.47910       -1.32000
C          2.06360       -1.03490       -1.04430
C          0.95060       -1.97220       -1.41480
C          0.47690        0.23110       -2.55720
C          0.29510        0.83440       -3.58270
H          1.23220        1.57750        0.54400
H         -0.00270        2.15470       -0.58210
H         -0.43480        1.79990        1.09900
H          0.03630       -0.63580        0.71660
H         -1.21150       -0.05640       -0.37800
H          2.83780       -0.84230       -1.77700
H          2.40040       -1.01730       -0.01300
H          0.52370       -2.60040       -0.64020
H          0.96340       -2.41650       -2.40280
H          0.14090        1.36290       -4.49030
