13
gdb 1059	7.36199	2.06799	1.64156	3.2061	55.38	-0.2134	0.0357	0.2491	715.2911	0.103891	-340.667317	-340.660909	-340.659965	-340.697997	22.855
O         -0.11080        1.40040        0.26860
C         -0.00840        0.00800       -0.01040
C         -1.38980       -0.56330        0.03690
N         -1.71170       -1.83370        0.13640
C         -3.08820       -1.86100        0.09790
C         -3.59460       -0.59370       -0.02050
N         -2.49100        0.22920       -0.06570
H          0.73540        1.81050        0.07080
H          0.43410       -0.16230       -1.00460
H          0.62090       -0.51760        0.72100
H         -3.63330       -2.79040        0.16260
H         -4.59870       -0.20710       -0.06690
H         -2.46250        1.23420       -0.10870
