14
gdb 21292	3.54167	1.9536	1.27111	1.2464	60.33	-0.1988	0.0143	0.2131	905.1127	0.108552	-412.030258	-412.022272	-412.021328	-412.062763	27.76
C         -0.04730        1.41660        0.02210
O          0.00330       -0.00680       -0.01350
C         -1.18850       -0.62790       -0.02160
N         -2.37220       -0.03420        0.01770
N         -3.21900       -1.06590        0.02690
N         -2.66750       -2.28450       -0.02860
C         -1.36400       -2.03350       -0.05240
N         -0.38180       -3.01030       -0.15920
H          0.98910        1.75610        0.02450
H         -0.57130        1.81040       -0.85530
H         -0.56250        1.76730        0.92290
H         -4.21200       -0.93330       -0.04090
H         -0.70250       -3.91770        0.15130
H          0.48000       -2.74950        0.30080
