15
gdb 19034	3.96433	2.31728	1.98055	4.1651	63.64	-0.2477	-0.0093	0.2384	714.7499	0.121008	-362.650794	-362.645054	-362.64411	-362.680522	23.27
O         -0.01260        0.00940        0.14300
C         -0.06350        1.20190        0.05800
C         -1.31610        2.09040        0.01980
C         -0.74240        3.42770        0.47980
C         -0.04050        3.26030        1.87160
C          1.27480        2.99820        1.12550
C          0.68010        3.44310       -0.16010
N          1.10410        2.04860       -0.01690
H         -1.70440        2.14020       -1.00520
H         -2.09490        1.67170        0.66110
H         -1.38630        4.29620        0.35670
H          0.01690        4.20980        2.40930
H         -0.42330        2.48620        2.54470
H          2.28120        3.09550        1.51410
H          1.06990        4.04020       -0.97480
