13
gdb 11694	4.26142	1.69527	1.37461	3.3457	62.28	-0.2669	-0.0482	0.2187	864.9625	0.094604	-398.573437	-398.566688	-398.565743	-398.604602	24.912
N         -0.06260        1.18470       -0.05400
C         -0.06050       -0.06150        0.03550
O          0.99900       -0.96350        0.17160
C          0.09330       -2.07180        0.00270
C         -0.90260       -2.08210        1.12480
C         -1.11620       -1.12050       -0.02280
C          0.41860       -3.18800       -0.89630
O          1.45530       -3.31080       -1.49520
H          0.88260        1.56720       -0.00090
H         -1.59210       -2.92070        1.14440
H         -0.57440       -1.72150        2.09400
H         -1.99230       -1.12710       -0.65460
H         -0.40750       -3.93090       -0.97180
