16
gdb 11299	4.92941	1.35902	1.21614	2.035	66.85	-0.2478	0.0379	0.2857	995.3212	0.129625	-383.700981	-383.69304	-383.692096	-383.733813	29.222
O         -0.73160        1.38710        0.55190
C         -0.01030        0.28080        0.02660
C          0.91650       -0.36630        1.06130
O          0.10740       -1.22060        1.85970
C         -1.16140       -1.43600        1.21630
C         -1.02130       -0.84020       -0.20280
C         -1.50740       -2.85300        1.22740
C         -1.81180       -4.01540        1.22240
H         -0.09930        2.03120        0.88570
H          0.52950        0.55850       -0.88950
H          1.70970       -0.94300        0.56110
H          1.39590        0.37650        1.71150
H         -1.92370       -0.87460        1.77310
H         -1.96740       -0.46700       -0.59650
H         -0.61600       -1.58790       -0.88900
H         -2.07750       -5.04350        1.22830
