17
gdb 15064	2.95145	1.47584	1.04944	3.3908	68.5	-0.279	0.0281	0.3071	1108.4435	0.141955	-363.858867	-363.850372	-363.849427	-363.892304	30.487
O          0.02830        1.39210        0.13630
C         -0.04840       -0.01350        0.14910
C         -1.49260       -0.53910       -0.05220
C         -2.00490       -0.03540       -1.33300
N         -2.35560        0.38490       -2.35160
C         -1.56740       -2.05590        0.02160
C         -1.67370       -2.72780        1.36810
C         -2.84730       -2.74110        0.42160
H         -0.19680        1.69800       -0.75000
H          0.60850       -0.47220       -0.60520
H          0.29540       -0.33870        1.13480
H         -2.11380       -0.10350        0.74040
H         -0.96450       -2.56100       -0.72750
H         -1.12140       -3.64710        1.52540
H         -1.74100       -2.09560        2.24770
H         -3.70140       -2.11790        0.66410
H         -3.10330       -3.66980       -0.07490
