19
gdb 7848	4.45495	1.10618	0.95348	3.8478	72.11	-0.2347	0.039	0.2737	1235.8055	0.164661	-365.09053	-365.081271	-365.080327	-365.125233	33.267
C         -0.27670        1.42520       -0.08460
C          0.41090        0.07750       -0.11840
C          1.89180       -0.05240        0.14470
C          0.88860       -0.64060        1.12350
C          0.71390       -0.07170        2.51670
C          1.64190       -0.63670        3.59850
N          2.85570       -1.07680        3.15920
O          1.32230       -0.65800        4.77100
H          0.15460        2.09090        0.66830
H         -0.18460        1.92750       -1.05360
H         -1.34500        1.32250        0.13600
H          0.02500       -0.58370       -0.89040
H          2.48030       -0.71820       -0.47820
H          2.41780        0.84740        0.45240
H          0.78580       -1.72250        1.08500
H          0.86840        1.01370        2.51330
H         -0.30340       -0.23310        2.88550
H          3.10130       -1.07220        2.18510
H          3.50550       -1.43860        3.83710
