22
gdb 11038	3.7493	1.63133	1.36949	0.2086	81.6	-0.2524	0.0873	0.3398	1021.7998	0.201598	-313.087206	-313.0791	-313.078156	-313.118915	32.473
C         -0.02050        1.57770        0.00700
C          0.04590        0.04920        0.02770
C          0.77650       -0.56410       -1.19300
C          1.28880       -1.94010       -0.71690
C          1.52630       -1.78850        0.78510
C          1.61020       -3.04260        1.62170
C          2.28710       -0.55210        1.20670
C          0.77360       -0.55120        1.22660
H          0.98510        2.01280        0.02330
H         -0.52850        1.94090       -0.89330
H         -0.56450        1.96590        0.87470
H         -0.98240       -0.33960        0.04530
H          0.12760       -0.63650       -2.07040
H          1.61660        0.07800       -1.48150
H          0.52050       -2.70850       -0.87440
H          2.18160       -2.26770       -1.26250
H          2.47990       -3.65060        1.34410
H          1.70130       -2.80690        2.68710
H          0.71770       -3.66730        1.49290
H          2.78880       -0.59130        2.16830
H          2.81650        0.03860        0.46550
H          0.28120       -0.51820        2.19400
