14
gdb 624	5.89878	3.01749	2.33352	1.6821	49.79	-0.2289	0.0739	0.3028	577.6746	0.118463	-307.529289	-307.52268	-307.521736	-307.559352	23.699
C          0.10460        1.02700        0.35700
O         -0.11450       -0.10450       -0.47460
C         -1.38770       -0.65690       -0.29030
C         -1.55740       -2.06860       -0.78510
C         -1.46340       -1.79200        0.70140
O         -0.30550       -2.12780        1.40260
H          1.11910        1.37890        0.15660
H         -0.60540        1.83300        0.12230
H          0.00870        0.77180        1.42040
H         -2.20800        0.05390       -0.39070
H         -2.51020       -2.35160       -1.21920
H         -0.68790       -2.52200       -1.24990
H         -2.34740       -1.91580        1.31800
H          0.42370       -1.69730        0.93640
