20
gdb 12104	4.3983	1.22735	1.0966	1.6522	74.94	-0.2569	0.0879	0.3448	1150.5891	0.175916	-348.976077	-348.967502	-348.966557	-349.009523	32.069
C         -0.02200        1.50280       -0.58050
C         -0.03680        0.03870       -0.19770
C         -1.38010       -0.67480       -0.22100
C         -2.37110       -0.12180        0.78500
C         -3.35190        0.96140        0.40490
C         -3.83770       -0.44380        0.66020
C          1.19370       -0.75470       -0.33830
O          0.77410       -0.28750        0.94610
H          0.99070        1.90670       -0.50730
H         -0.37880        1.63920       -1.60740
H         -0.67280        2.08270        0.07980
H         -1.80630       -0.61290       -1.23160
H         -1.20620       -1.73720       -0.01350
H         -1.97910       -0.07620        1.79730
H         -3.58590        1.72960        1.13380
H         -3.34630        1.31370       -0.62170
H         -4.15630       -1.03190       -0.19490
H         -4.40240       -0.63870        1.56510
H          1.13160       -1.83250       -0.48760
H          2.09560       -0.28760       -0.73330
