18
gdb 16623	3.15565	2.1557	1.47458	1.9838	72.62	-0.2338	0.0071	0.2409	893.6475	0.153614	-347.80222	-347.79461	-347.793666	-347.833718	29.298
C         -0.09100        1.54480       -0.01700
C          0.01870        0.01250        0.00280
C          0.80300       -0.54330       -1.18610
O          2.15520       -0.08580       -1.26260
C          1.89090       -1.38440       -0.66790
C          1.78860       -1.34490        0.81820
C          0.78110       -0.55160        1.20440
C          0.40700       -0.19570        2.60780
H          0.90680        1.98890       -0.06580
H         -0.65850        1.88130       -0.89040
H         -0.59970        1.92270        0.87490
H         -0.99650       -0.41200       -0.01040
H          0.31240       -0.70990       -2.14220
H          2.31800       -2.22570       -1.20490
H          2.46880       -1.86580        1.48180
H          1.01140       -0.74650        3.33350
H          0.54520        0.87550        2.79970
H         -0.65060       -0.41340        2.80490
