12
gdb 4258	3.89349	2.01562	1.32808	4.1467	58.65	-0.2516	-0.0413	0.2103	827.2666	0.087163	-414.76216	-414.755999	-414.755054	-414.792566	23.303
O         -0.01770       -0.08800        0.00320
C         -0.02550        1.12200        0.00950
N         -1.20220        1.86830        0.02930
C         -1.23320        3.23900        0.03690
C         -0.10840        3.97910        0.02560
C          1.19360        3.32300        0.00460
O          2.27640        3.86800       -0.00700
N          1.10580        1.91400       -0.00150
H         -2.04930        1.32270        0.03780
H         -2.22390        3.67790        0.05250
H         -0.13360        5.05850        0.03160
H          1.98610        1.41630       -0.01590
