19
gdb 15154	8.58904	0.6805	0.66561	1.1549	81.63	-0.2337	0.0636	0.2973	1723.3493	0.163923	-327.872427	-327.862958	-327.862013	-327.90903	32.413
C          0.07130        1.47850       -0.01750
C          0.01600        0.02630        0.07560
C         -0.01800       -1.17470        0.15660
C         -0.09210       -2.62850        0.23910
C         -1.44210       -3.18100       -0.25060
N         -1.44700       -4.63590       -0.17050
C         -1.92210       -5.21160        1.08500
C         -2.75700       -5.27480       -0.14590
H          0.88270        1.80610       -0.67710
H         -0.86320        1.88840       -0.41670
H          0.23890        1.93610        0.96400
H          0.70640       -3.08940       -0.35460
H          0.07090       -2.95510        1.27460
H         -2.25930       -2.72360        0.33490
H         -1.59380       -2.89440       -1.29680
H         -1.38820       -6.08910        1.43800
H         -2.24710       -4.52850        1.86900
H         -3.63750       -4.63480       -0.18040
H         -2.84360       -6.19890       -0.71020
