16
gdb 16032	3.49142	1.77397	1.45876	1.8464	72.99	-0.2292	0.0163	0.2455	907.0782	0.128963	-346.526695	-346.519022	-346.518077	-346.558329	29.178
C          0.00090        1.56350       -0.00680
C          0.05330        0.05450       -0.07920
C          0.65410       -0.74270       -1.21720
C          1.94920       -0.09930       -1.69120
O          2.46230       -0.01470       -0.33470
C          1.31980       -0.73360        0.16330
C          1.50620       -1.72950        1.15850
C          1.65630       -2.56510        2.01130
H          0.97100        2.00220       -0.24980
H         -0.74810        1.96580       -0.69710
H         -0.26460        1.88770        1.00430
H         -0.81390       -0.45560        0.33460
H          0.13080       -1.54820       -1.71430
H          2.57210       -0.77080       -2.29180
H          1.88820        0.88200       -2.17470
H          1.79360       -3.30310        2.76240
