17
gdb 11599	6.04298	0.87699	0.80174	1.8766	65.38	-0.2471	0.032	0.2791	1378.8133	0.140768	-401.013274	-401.004175	-401.003231	-401.048911	30.995
N         -0.08910        1.20050        0.51050
C          0.00960        0.00500       -0.13990
O          1.00880       -0.32260       -0.75110
C         -1.24010       -0.87050       -0.06810
C         -0.90360       -2.36020       -0.19130
C         -2.14320       -3.21140       -0.29010
C         -2.25790       -4.51970        0.36350
O         -2.90640       -3.37090        0.91320
H          0.69440        1.83160        0.47510
H         -0.90000        1.46040        1.04290
H         -1.80110       -0.68230        0.85380
H         -1.89440       -0.56610       -0.89700
H         -0.27400       -2.50680       -1.07480
H         -0.31470       -2.67850        0.67560
H         -2.76110       -3.03650       -1.17420
H         -2.92050       -5.27900       -0.04990
H         -1.41830       -4.90370        0.94180
