18
gdb 5896	2.96333	1.21454	1.066	0.7471	82.64	-0.2465	0.0397	0.2862	1228.1921	0.149495	-310.616182	-310.605987	-310.605043	-310.652158	35.917
C         -0.02220        1.48590       -0.01160
C          0.00140        0.03000       -0.00570
C          0.02870       -1.17320        0.01080
C          0.04080       -2.64480       -0.00040
C         -1.41320       -3.17800        0.10830
C          0.68410       -3.14990       -1.32000
C          0.82500       -3.14330        1.14130
C          1.45820       -3.58390        2.06250
H          0.54650        1.89370        0.83140
H          0.41540        1.88800       -0.93200
H         -1.04600        1.86850        0.06340
H         -2.00340       -2.81590       -0.73800
H         -1.41170       -4.27150        0.10120
H         -1.88030       -2.83420        1.03340
H          1.70950       -2.78610       -1.41130
H          0.69690       -4.24330       -1.33480
H          0.10620       -2.78770       -2.17460
H          2.02120       -3.95700        2.88190
