22
gdb 8436	2.61968	2.03284	1.72816	0.2841	81.59	-0.2419	0.0841	0.326	937.8001	0.199433	-313.056042	-313.047415	-313.046471	-313.088012	34.367
C         -0.10380        1.54530        0.06620
C          0.03630        0.04790        0.02610
C         -0.81510       -0.84380        0.89350
C          0.68020       -0.91420        1.03000
C          1.24790       -1.76970       -0.10500
C          0.64610       -0.76230       -1.15450
C         -0.33130       -1.33250       -2.18290
C          1.76200        0.01170       -1.86110
H          0.81720        2.05420       -0.23680
H         -0.90610        1.89120       -0.59780
H         -0.35150        1.88460        1.07760
H         -1.33720       -0.32800        1.69410
H         -1.36680       -1.68750        0.48550
H          1.18230       -0.68970        1.96430
H          2.33970       -1.79940       -0.14030
H          0.87120       -2.79790       -0.15050
H         -1.13940       -1.90020       -1.71330
H         -0.78750       -0.53250       -2.77790
H          0.18470       -2.00580       -2.87750
H          2.31670       -0.64990       -2.53600
H          1.36270        0.83810       -2.46010
H          2.47500        0.43100       -1.14340
