14
gdb 8572	4.37013	2.11413	1.82696	5.5478	56.98	-0.2844	0.0357	0.3201	731.8186	0.109319	-419.705283	-419.699558	-419.698614	-419.73508	22.756
O          0.00790        0.08270        0.47930
C         -0.01370        1.18800        0.03490
O         -1.17810        1.84060       -0.21750
C         -1.08720        3.17420       -0.75460
C         -0.06880        3.17010       -1.91940
C          0.98180        3.20270       -0.78400
C         -0.05150        3.97160        0.07330
O          1.12460        1.87240       -0.25020
H         -2.11160        3.51870       -0.88430
H         -0.06660        2.31260       -2.59420
H         -0.08970        4.10550       -2.48120
H          1.99220        3.57530       -0.94260
H         -0.06960        5.03560       -0.16870
H         -0.03410        3.82000        1.15380
