11
gdb 746	9.51162	3.77655	2.75015	3.1995	47.14	-0.2624	0.0091	0.2716	463.9201	0.0876	-281.495234	-281.490084	-281.48914	-281.523946	17.404
C         -0.07190        1.42060        0.04490
N         -0.01120       -0.02370       -0.01210
C          0.36510       -0.82950       -1.02590
N          0.27670       -2.09790       -0.66930
C         -0.17230       -2.00750        0.61170
N         -0.36290       -0.77570        1.05850
H          0.25100        1.82360       -0.91660
H         -1.09440        1.74680        0.24980
H          0.58520        1.79470        0.83390
H          0.68850       -0.45160       -1.98450
H         -0.36440       -2.86990        1.23250
