16
gdb 6069	4.50961	1.20311	1.1868	2.601	61.96	-0.2532	-0.0175	0.2357	1092.0758	0.126628	-420.935513	-420.926152	-420.925208	-420.971027	31.132
C         -0.28830        1.23050       -0.05750
C         -0.03280       -0.25920       -0.16320
O         -0.47860       -1.06500        0.61420
C          0.83790       -0.68730       -1.34870
O          0.97350       -2.09590       -1.42280
C         -0.10670       -2.75340       -1.92060
C          0.08490       -4.24280       -1.80740
O         -1.06560       -2.19250       -2.38330
H          0.63500        1.80600       -0.18360
H         -0.97160        1.53700       -0.85820
H         -0.74370        1.45910        0.90650
H          0.41390       -0.28320       -2.27400
H          1.84860       -0.28660       -1.21980
H         -0.69230       -4.75420       -2.37380
H          1.07560       -4.53310       -2.16500
H          0.01780       -4.52900       -0.75320
