18
gdb 9968	2.48098	1.91332	1.64669	1.6926	63.86	-0.2278	0.0656	0.2934	914.149	0.15129	-422.039725	-422.030744	-422.0298	-422.072581	33.23
C          0.16810        1.09040       -0.39020
O         -0.11820       -0.13030        0.28850
C         -1.42290       -0.61010        0.12270
C         -2.47860        0.04360        0.98030
C         -1.79410       -1.19910       -1.23960
O         -0.88330       -1.15470       -2.28900
C         -1.43140       -2.11090       -0.08100
O         -0.18640       -2.73580       -0.21490
H          1.22170        1.30920       -0.20180
H         -0.00290        0.98780       -1.46540
H         -0.43600        1.91750        0.00440
H         -2.61480        1.09800        0.71630
H         -3.44390       -0.45450        0.84820
H         -2.20630       -0.01520        2.03940
H         -2.83030       -1.12010       -1.56000
H         -0.25210       -1.86970       -2.11010
H         -2.17760       -2.72730        0.41220
H          0.46220       -2.10020        0.12450
