19
gdb 13436	3.33573	1.4885	1.26694	3.5846	72.49	-0.2432	0.0281	0.2713	1037.1152	0.164575	-365.079216	-365.070061	-365.069117	-365.113206	32.635
C          0.06760        1.43410        0.28480
C          0.12000       -0.04720       -0.01460
C          0.67820       -0.61870       -1.30160
C          1.23620        0.24410       -2.41370
C          1.41880       -0.82650        0.00380
N          2.66190       -0.14160        0.20920
C          3.07980        0.27570        1.43780
O          2.42200        0.22880        2.45360
H          0.93140        1.96970       -0.11470
H         -0.83330        1.88580       -0.14430
H          0.05450        1.59720        1.36600
H         -0.71880       -0.59980        0.40030
H          0.17280       -1.50920       -1.66640
H          1.77700        1.11470       -2.03570
H          1.92490       -0.32790       -3.04680
H          0.43130        0.61260       -3.05840
H          1.38400       -1.81870        0.44760
H          3.34540       -0.15020       -0.53260
H          4.11150        0.68280        1.40020
