22
gdb 17793	5.24622	1.16193	1.01348	0.0001	82.51	-0.2697	0.0892	0.3589	1226.6488	0.202138	-313.05164	-313.043657	-313.042712	-313.08442	30.681
C         -0.05950        1.57500       -0.08880
C          1.48970        1.53980        0.00420
C          1.38610        0.09770        0.58550
C         -0.06090        0.02590        0.01150
C          2.40020       -0.94300        0.16980
C          3.84720       -0.87140        0.74370
C          3.84590       -2.42060        0.84270
C          2.29660       -2.38510        0.75080
H         -0.50800        2.03870        0.79490
H         -0.50480        2.02690       -0.97830
H          1.95260        1.53190       -0.98860
H          1.98550        2.30250        0.61000
H          1.34340        0.14680        1.68160
H         -0.83220       -0.44860        0.62330
H         -0.06880       -0.44170       -0.97910
H          2.44300       -0.99200       -0.92630
H          4.61850       -0.39630        0.13240
H          3.85500       -0.40480        1.73470
H          4.29350       -2.88340       -0.04190
H          4.29190       -2.87330        1.73130
H          1.83460       -2.37720        1.74410
H          1.80020       -3.14760        0.14540
