12
gdb 9986	2.81269	1.46204	0.96245	10.2428	77.88	-0.1882	-0.0529	0.1353	1102.9778	0.084039	-373.693699	-373.68533	-373.684386	-373.726962	28.631
N          0.03040        0.87250        0.11150
H          0.03460       -0.11880       -0.07660
H          0.86770        1.35470       -0.17210
C         -1.13500        1.57020        0.02740
N         -2.31720        1.01890        0.03230
C         -3.58460        1.64880        0.03400
C         -3.60190        3.04210        0.03980
N         -3.49800        4.20400        0.04360
C         -4.69820        0.80820        0.01330
N         -5.59090        0.05870       -0.00310
H         -1.08500        2.65190        0.01800
H         -2.37590        0.00620        0.04850
