19
gdb 7147	5.54711	0.9029	0.86171	1.805	69.16	-0.2235	0.0168	0.2403	1414.9575	0.163942	-402.226687	-402.216925	-402.215981	-402.26246	33.251
C          0.31160        1.36740       -0.00890
C          0.31830       -0.14850        0.01900
O          0.54960       -0.61060       -1.32880
C          0.60490       -1.94340       -1.49540
O          0.48900       -2.74430       -0.60020
C          0.79080       -2.31300       -2.96850
N          1.16520       -3.69120       -3.20090
C          2.54270       -3.99330       -2.81500
H          1.26850        1.75550       -0.36900
H         -0.47990        1.74310       -0.66350
H          0.13910        1.75650        0.99900
H          1.10630       -0.54470        0.66700
H         -0.63310       -0.55740        0.37400
H         -0.16100       -2.09300       -3.47120
H          1.53110       -1.63980       -3.41360
H          0.53970       -4.28350       -2.66340
H          3.22960       -3.43080       -3.45780
H          2.78150       -3.75850       -1.76580
H          2.73500       -5.05750       -2.97840
