22
gdb 11469	3.9018	1.22703	1.12138	1.314	77.8	-0.2591	0.0746	0.3338	1181.5371	0.201302	-350.226564	-350.217802	-350.216858	-350.260391	33.264
C          0.01620        1.52540        0.14720
C          0.00230        0.00220       -0.01510
C          0.73230       -0.50020       -1.26530
C          2.24830       -0.19910       -1.29990
C          2.80260       -1.26610       -2.25360
C          2.05440       -2.53870       -1.82220
O          2.61490       -3.09000       -0.62850
C          0.63870       -2.04350       -1.46080
H          1.03610        1.90970        0.25240
H         -0.43510        2.01960       -0.72090
H         -0.54610        1.83420        1.03410
H          0.45320       -0.46840        0.86910
H         -1.03810       -0.34710       -0.04730
H          0.27640       -0.01450       -2.13950
H          2.47730        0.82250       -1.61420
H          2.67830       -0.34840       -0.30250
H          2.54260       -1.02250       -3.29200
H          3.89110       -1.38500       -2.20920
H          2.03780       -3.30120       -2.61370
H          3.52940       -3.32580       -0.81570
H          0.31920       -2.55000       -0.54570
H         -0.08040       -2.30180       -2.24320
