14
gdb 16397	3.77977	2.31412	1.8149	3.5548	62.31	-0.2333	-0.0622	0.171	731.3287	0.10909	-382.535585	-382.529732	-382.528788	-382.565411	23.242
O          0.01490       -0.02070       -0.05310
C          0.00230        1.18670        0.02910
C         -1.23220        2.01570        0.11480
C         -1.06930        3.34600        0.10270
C          0.35830        3.85280        0.08580
C          1.13940        3.16560       -1.06800
C          1.27000        2.05670        0.00820
O          1.12910        3.06930        1.04510
H         -2.19240        1.51250        0.14170
H         -1.90000        4.04460        0.09470
H          0.45320        4.92780        0.24800
H          0.60980        2.94840       -1.99660
H          2.10000        3.64490       -1.26330
H          2.17910        1.45960        0.09210
