18
gdb 1678	3.73261	2.12277	1.52532	3.4689	65.39	-0.2314	0.0367	0.2681	865.2535	0.158517	-327.013853	-327.004948	-327.004004	-327.047524	30.639
C         -0.21160        1.66050       -0.09860
C          0.06280        0.15650       -0.00900
N         -1.15380       -0.65400       -0.06560
C         -1.61350       -1.04160       -1.38440
C         -1.79900       -0.92730        1.11390
C         -3.06080       -1.77960        1.05580
O         -1.37570       -0.50820        2.18060
H          0.72890        2.22060       -0.08660
H         -0.74500        1.92080       -1.01900
H         -0.81340        1.98060        0.75550
H          0.71440       -0.16510       -0.82970
H          0.56230       -0.07000        0.93430
H         -2.55970       -1.57620       -1.32860
H         -1.76410       -0.16170       -2.02320
H         -0.88150       -1.69290       -1.88080
H         -2.88390       -2.75060        0.58320
H         -3.38750       -1.93690        2.08300
H         -3.86330       -1.27950        0.50380
